
     RDKit          3D

  0  0  0  0  0  0  0  0  0  0999 V3000
M  V30 BEGIN CTAB
M  V30 COUNTS 154 172 0 0 0
M  V30 BEGIN ATOM
M  V30 1 Pd -0.9423 4.3607 -1.4656 0 CHG=2
M  V30 2 Pd 0.9229 -4.4183 1.0080 0 CHG=2
M  V30 3 C 5.8982 -0.9142 1.6000 0
M  V30 4 C 5.9663 -2.1038 1.8098 0
M  V30 5 C 6.1701 -3.4895 1.9554 0
M  V30 6 C 7.4356 -3.9616 2.2546 0
M  V30 7 C 7.7052 -5.3338 2.2890 0
M  V30 8 C 6.7288 -6.2522 1.9934 0
M  V30 9 C 5.4242 -5.8188 1.6950 0
M  V30 10 C 4.3812 -6.7093 1.3539 0
M  V30 11 C 3.1301 -6.2262 1.1044 0
M  V30 12 N 2.8332 -4.9082 1.2180 0
M  V30 13 C 3.7869 -4.0419 1.4990 0
M  V30 14 C 5.1198 -4.4263 1.7140 0
M  V30 15 H 8.2310 -3.2585 2.4490 0
M  V30 16 H 8.7039 -5.6654 2.5291 0
M  V30 17 H 6.9489 -7.3082 1.9843 0
M  V30 18 H 4.5878 -7.7656 1.2900 0
M  V30 19 H 2.3137 -6.8794 0.8034 0
M  V30 20 H 3.5043 -2.9948 1.5761 0
M  V30 21 C 5.8370 0.4544 1.2601 0
M  V30 22 C 6.9819 1.2516 1.3598 0
M  V30 23 C 6.9347 2.5711 0.9489 0
M  V30 24 C 5.7674 3.1099 0.4348 0
M  V30 25 C 4.6140 2.3278 0.3343 0
M  V30 26 C 4.6569 1.0014 0.7604 0
M  V30 27 H 7.8967 0.8313 1.7483 0
M  V30 28 H 7.8205 3.1839 1.0199 0
M  V30 29 H 5.7686 4.1288 0.0811 0
M  V30 30 H 3.7717 0.3867 0.7311 0
M  V30 31 C 3.3736 2.8751 -0.2231 0
M  V30 32 C 3.0071 4.2141 -0.0533 0
M  V30 33 C 1.8001 4.6607 -0.5511 0
M  V30 34 N 0.9497 3.8474 -1.1841 0
M  V30 35 C 1.2962 2.5713 -1.3939 0
M  V30 36 C 2.4921 2.0586 -0.9447 0
M  V30 37 H 3.6448 4.8950 0.4866 0
M  V30 38 H 1.4865 5.6947 -0.4408 0
M  V30 39 H 0.5737 1.9670 -1.9405 0
M  V30 40 H 2.7573 1.0362 -1.1599 0
M  V30 41 C -0.0227 -0.9745 5.9492 0
M  V30 42 C 0.1746 -2.1616 6.0738 0
M  V30 43 C 0.2726 -3.5474 6.3037 0
M  V30 44 C 0.1929 -4.0293 7.5979 0
M  V30 45 C 0.1642 -5.4040 7.8561 0
M  V30 46 C 0.1803 -6.3153 6.8298 0
M  V30 47 C 0.2725 -5.8717 5.4979 0
M  V30 48 C 0.2641 -6.7544 4.3945 0
M  V30 49 C 0.3863 -6.2605 3.1285 0
M  V30 50 N 0.5649 -4.9385 2.8875 0
M  V30 51 C 0.5431 -4.0798 3.8882 0
M  V30 52 C 0.3625 -4.4760 5.2226 0
M  V30 53 H 0.1357 -3.3326 8.4201 0
M  V30 54 H 0.1046 -5.7434 8.8789 0
M  V30 55 H 0.1204 -7.3735 7.0303 0
M  V30 56 H 0.1563 -7.8135 4.5655 0
M  V30 57 H 0.3460 -6.9078 2.2551 0
M  V30 58 H 0.6874 -3.0288 3.6484 0
M  V30 59 C -0.3512 0.3896 5.7941 0
M  V30 60 C -0.6318 1.1726 6.9186 0
M  V30 61 C -1.0333 2.4856 6.7550 0
M  V30 62 C -1.1660 3.0315 5.4895 0
M  V30 63 C -0.8832 2.2640 4.3568 0
M  V30 64 C -0.4653 0.9444 4.5211 0
M  V30 65 H -0.5420 0.7462 7.9059 0
M  V30 66 H -1.2561 3.0874 7.6229 0
M  V30 67 H -1.5232 4.0441 5.3877 0
M  V30 68 H -0.2012 0.3421 3.6668 0
M  V30 69 C -1.0363 2.8195 3.0088 0
M  V30 70 C -0.7939 4.1678 2.7266 0
M  V30 71 C -0.9052 4.6253 1.4296 0
M  V30 72 N -1.2245 3.8146 0.4167 0
M  V30 73 C -1.4970 2.5279 0.6674 0
M  V30 74 C -1.4265 2.0036 1.9381 0
M  V30 75 H -0.4949 4.8484 3.5069 0
M  V30 76 H -0.7290 5.6667 1.1764 0
M  V30 77 H -1.7767 1.9251 -0.1955 0
M  V30 78 H -1.6856 0.9718 2.1120 0
M  V30 79 C -5.9158 0.8549 -2.0621 0
M  V30 80 C -5.9849 2.0455 -2.2654 0
M  V30 81 C -6.1906 3.4318 -2.4035 0
M  V30 82 C -7.4578 3.9038 -2.6960 0
M  V30 83 C -7.7292 5.2759 -2.7226 0
M  V30 84 C -6.7530 6.1939 -2.4259 0
M  V30 85 C -5.4467 5.7608 -2.1343 0
M  V30 86 C -4.4036 6.6508 -1.7927 0
M  V30 87 C -3.1510 6.1681 -1.5498 0
M  V30 88 N -2.8529 4.8509 -1.6705 0
M  V30 89 C -3.8066 3.9848 -1.9524 0
M  V30 90 C -5.1407 4.3687 -2.1612 0
M  V30 91 H -8.2529 3.2007 -2.8910 0
M  V30 92 H -8.7291 5.6074 -2.9575 0
M  V30 93 H -6.9742 7.2496 -2.4109 0
M  V30 94 H -4.6111 7.7066 -1.7233 0
M  V30 95 H -2.3344 6.8209 -1.2486 0
M  V30 96 H -3.5228 2.9384 -2.0355 0
M  V30 97 C -5.8530 -0.5153 -1.7294 0
M  V30 98 C -6.9951 -1.3150 -1.8397 0
M  V30 99 C -6.9466 -2.6365 -1.4356 0
M  V30 100 C -5.7806 -3.1751 -0.9178 0
M  V30 101 C -4.6301 -2.3904 -0.8066 0
M  V30 102 C -4.6742 -1.0619 -1.2260 0
M  V30 103 H -7.9089 -0.8952 -2.2311 0
M  V30 104 H -7.8303 -3.2514 -1.5148 0
M  V30 105 H -5.7811 -4.1958 -0.5695 0
M  V30 106 H -3.7908 -0.4449 -1.1881 0
M  V30 107 C -3.3911 -2.9372 -0.2456 0
M  V30 108 C -3.0201 -4.2742 -0.4208 0
M  V30 109 C -1.8142 -4.7200 0.0806 0
M  V30 110 N -0.9690 -3.9078 0.7220 0
M  V30 111 C -1.3205 -2.6339 0.9371 0
M  V30 112 C -2.5156 -2.1221 0.4850 0
M  V30 113 H -3.6531 -4.9540 -0.9673 0
M  V30 114 H -1.4971 -5.7526 -0.0338 0
M  V30 115 H -0.6024 -2.0305 1.4905 0
M  V30 116 H -2.7848 -1.1018 0.7047 0
M  V30 117 C 0.0290 0.9216 -6.4077 0
M  V30 118 C -0.1727 2.1081 -6.5320 0
M  V30 119 C -0.2756 3.4936 -6.7614 0
M  V30 120 C -0.1926 3.9767 -8.0551 0
M  V30 121 C -0.1688 5.3515 -8.3125 0
M  V30 122 C -0.1930 6.2621 -7.2857 0
M  V30 123 C -0.2886 5.8173 -5.9545 0
M  V30 124 C -0.2879 6.6994 -4.8505 0
M  V30 125 C -0.4125 6.2043 -3.5853 0
M  V30 126 N -0.5865 4.8815 -3.3455 0
M  V30 127 C -0.5576 4.0233 -4.3466 0
M  V30 128 C -0.3737 4.4211 -5.6801 0
M  V30 129 H -0.1292 3.2806 -8.8775 0
M  V30 130 H -0.1066 5.6917 -9.3349 0
M  V30 131 H -0.1369 7.3206 -7.4854 0
M  V30 132 H -0.1840 7.7591 -5.0205 0
M  V30 133 H -0.3780 6.8514 -2.7115 0
M  V30 134 H -0.6982 2.9717 -4.1080 0
M  V30 135 C 0.3623 -0.4412 -6.2520 0
M  V30 136 C 0.6555 -1.2212 -7.3753 0
M  V30 137 C 1.0611 -2.5327 -7.2105 0
M  V30 138 C 1.1857 -3.0803 -5.9448 0
M  V30 139 C 0.8903 -2.3156 -4.8133 0
M  V30 140 C 0.4681 -0.9977 -4.9790 0
M  V30 141 H 0.5721 -0.7935 -8.3627 0
M  V30 142 H 1.2936 -3.1322 -8.0775 0
M  V30 143 H 1.5463 -4.0913 -5.8415 0
M  V30 144 H 0.1943 -0.3977 -4.1260 0
M  V30 145 C 1.0354 -2.8724 -3.4650 0
M  V30 146 C 0.7966 -4.2220 -3.1862 0
M  V30 147 C 0.9009 -4.6807 -1.8890 0
M  V30 148 N 1.2100 -3.8701 -0.8729 0
M  V30 149 C 1.4785 -2.5818 -1.1200 0
M  V30 150 C 1.4143 -2.0561 -2.3905 0
M  V30 151 H 0.5059 -4.9028 -3.9695 0
M  V30 152 H 0.7273 -5.7231 -1.6382 0
M  V30 153 H 1.7493 -1.9787 -0.2544 0
M  V30 154 H 1.6697 -1.0230 -2.5613 0
M  V30 END ATOM
M  V30 BEGIN BOND
M  V30 1 3 3 4
M  V30 2 1 4 5
M  V30 3 2 5 6
M  V30 4 1 6 7
M  V30 5 2 7 8
M  V30 6 1 8 9
M  V30 7 2 9 10
M  V30 8 1 10 11
M  V30 9 2 11 12
M  V30 10 1 12 13
M  V30 11 2 13 14
M  V30 12 1 14 5
M  V30 13 1 14 9
M  V30 14 1 6 15
M  V30 15 1 7 16
M  V30 16 1 8 17
M  V30 17 1 10 18
M  V30 18 1 11 19
M  V30 19 1 13 20
M  V30 20 2 21 22
M  V30 21 1 22 23
M  V30 22 2 23 24
M  V30 23 1 24 25
M  V30 24 2 25 26
M  V30 25 1 26 21
M  V30 26 1 22 27
M  V30 27 1 23 28
M  V30 28 1 24 29
M  V30 29 1 26 30
M  V30 30 2 31 32
M  V30 31 1 32 33
M  V30 32 2 33 34
M  V30 33 1 34 35
M  V30 34 2 35 36
M  V30 35 1 36 31
M  V30 36 1 32 37
M  V30 37 1 33 38
M  V30 38 1 35 39
M  V30 39 1 36 40
M  V30 40 1 3 21
M  V30 41 1 25 31
M  V30 42 3 41 42
M  V30 43 1 42 43
M  V30 44 2 43 44
M  V30 45 1 44 45
M  V30 46 2 45 46
M  V30 47 1 46 47
M  V30 48 2 47 48
M  V30 49 1 48 49
M  V30 50 2 49 50
M  V30 51 1 50 51
M  V30 52 2 51 52
M  V30 53 1 52 43
M  V30 54 1 52 47
M  V30 55 1 44 53
M  V30 56 1 45 54
M  V30 57 1 46 55
M  V30 58 1 48 56
M  V30 59 1 49 57
M  V30 60 1 51 58
M  V30 61 2 59 60
M  V30 62 1 60 61
M  V30 63 2 61 62
M  V30 64 1 62 63
M  V30 65 2 63 64
M  V30 66 1 64 59
M  V30 67 1 60 65
M  V30 68 1 61 66
M  V30 69 1 62 67
M  V30 70 1 64 68
M  V30 71 2 69 70
M  V30 72 1 70 71
M  V30 73 2 71 72
M  V30 74 1 72 73
M  V30 75 2 73 74
M  V30 76 1 74 69
M  V30 77 1 70 75
M  V30 78 1 71 76
M  V30 79 1 73 77
M  V30 80 1 74 78
M  V30 81 1 41 59
M  V30 82 1 63 69
M  V30 83 3 79 80
M  V30 84 1 80 81
M  V30 85 2 81 82
M  V30 86 1 82 83
M  V30 87 2 83 84
M  V30 88 1 84 85
M  V30 89 2 85 86
M  V30 90 1 86 87
M  V30 91 2 87 88
M  V30 92 1 88 89
M  V30 93 2 89 90
M  V30 94 1 90 81
M  V30 95 1 90 85
M  V30 96 1 82 91
M  V30 97 1 83 92
M  V30 98 1 84 93
M  V30 99 1 86 94
M  V30 100 1 87 95
M  V30 101 1 89 96
M  V30 102 2 97 98
M  V30 103 1 98 99
M  V30 104 2 99 100
M  V30 105 1 100 101
M  V30 106 2 101 102
M  V30 107 1 102 97
M  V30 108 1 98 103
M  V30 109 1 99 104
M  V30 110 1 100 105
M  V30 111 1 102 106
M  V30 112 2 107 108
M  V30 113 1 108 109
M  V30 114 2 109 110
M  V30 115 1 110 111
M  V30 116 2 111 112
M  V30 117 1 112 107
M  V30 118 1 108 113
M  V30 119 1 109 114
M  V30 120 1 111 115
M  V30 121 1 112 116
M  V30 122 1 79 97
M  V30 123 1 101 107
M  V30 124 3 117 118
M  V30 125 1 118 119
M  V30 126 2 119 120
M  V30 127 1 120 121
M  V30 128 2 121 122
M  V30 129 1 122 123
M  V30 130 2 123 124
M  V30 131 1 124 125
M  V30 132 2 125 126
M  V30 133 1 126 127
M  V30 134 2 127 128
M  V30 135 1 128 119
M  V30 136 1 128 123
M  V30 137 1 120 129
M  V30 138 1 121 130
M  V30 139 1 122 131
M  V30 140 1 124 132
M  V30 141 1 125 133
M  V30 142 1 127 134
M  V30 143 2 135 136
M  V30 144 1 136 137
M  V30 145 2 137 138
M  V30 146 1 138 139
M  V30 147 2 139 140
M  V30 148 1 140 135
M  V30 149 1 136 141
M  V30 150 1 137 142
M  V30 151 1 138 143
M  V30 152 1 140 144
M  V30 153 2 145 146
M  V30 154 1 146 147
M  V30 155 2 147 148
M  V30 156 1 148 149
M  V30 157 2 149 150
M  V30 158 1 150 145
M  V30 159 1 146 151
M  V30 160 1 147 152
M  V30 161 1 149 153
M  V30 162 1 150 154
M  V30 163 1 117 135
M  V30 164 1 139 145
M  V30 165 9 34 1
M  V30 166 9 72 1
M  V30 167 9 88 1
M  V30 168 9 126 1
M  V30 169 9 12 2
M  V30 170 9 50 2
M  V30 171 9 110 2
M  V30 172 9 148 2
M  V30 END BOND
M  V30 END CTAB
M  END

$$$$
