
     RDKit          3D

  0  0  0  0  0  0  0  0  0  0999 V3000
M  V30 BEGIN CTAB
M  V30 COUNTS 154 172 0 0 0
M  V30 BEGIN ATOM
M  V30 1 Pd 3.9528 2.3702 -0.6543 0 CHG=2
M  V30 2 Pd -3.9478 -2.3759 0.6579 0 CHG=2
M  V30 3 C -4.8458 2.2642 -3.2210 0
M  V30 4 C -5.7778 1.5751 -2.8744 0
M  V30 5 C -6.9378 0.9082 -2.4354 0
M  V30 6 C -8.1718 1.3013 -2.9218 0
M  V30 7 C -9.3550 0.7471 -2.4221 0
M  V30 8 C -9.3277 -0.1796 -1.4099 0
M  V30 9 C -8.0953 -0.6180 -0.8924 0
M  V30 10 C -7.9977 -1.5468 0.1683 0
M  V30 11 C -6.7706 -1.9536 0.6040 0
M  V30 12 N -5.6235 -1.5295 0.0187 0
M  V30 13 C -5.6719 -0.6357 -0.9498 0
M  V30 14 C -6.8792 -0.1062 -1.4320 0
M  V30 15 H -8.2220 2.0597 -3.6880 0
M  V30 16 H -10.2996 1.0761 -2.8280 0
M  V30 17 H -10.2432 -0.5777 -1.0012 0
M  V30 18 H -8.8985 -1.9224 0.6266 0
M  V30 19 H -6.6588 -2.6386 1.4419 0
M  V30 20 H -4.7274 -0.3210 -1.3871 0
M  V30 21 C -3.7748 3.1244 -3.5459 0
M  V30 22 C -3.9843 4.2084 -4.4046 0
M  V30 23 C -2.9513 5.0928 -4.6543 0
M  V30 24 C -1.7131 4.9198 -4.0591 0
M  V30 25 C -1.4869 3.8386 -3.2035 0
M  V30 26 C -2.5236 2.9391 -2.9614 0
M  V30 27 H -4.9517 4.3533 -4.8603 0
M  V30 28 H -3.1155 5.9330 -5.3120 0
M  V30 29 H -0.9371 5.6476 -4.2360 0
M  V30 30 H -2.3655 2.0745 -2.3371 0
M  V30 31 C -0.1884 3.6479 -2.5505 0
M  V30 32 C 1.0154 4.0064 -3.1660 0
M  V30 33 C 2.2117 3.7511 -2.5275 0
M  V30 34 N 2.2651 3.1521 -1.3344 0
M  V30 35 C 1.1248 2.8362 -0.7079 0
M  V30 36 C -0.1070 3.0781 -1.2726 0
M  V30 37 H 1.0202 4.4548 -4.1460 0
M  V30 38 H 3.1642 4.0203 -2.9747 0
M  V30 39 H 1.2339 2.3769 0.2736 0
M  V30 40 H -1.0073 2.8440 -0.7279 0
M  V30 41 C -1.3196 -4.0347 -4.5871 0
M  V30 42 C -2.3287 -4.5914 -4.2192 0
M  V30 43 C -3.4256 -5.3739 -3.8104 0
M  V30 44 C -3.8565 -6.4139 -4.6145 0
M  V30 45 C -4.8621 -7.2878 -4.1879 0
M  V30 46 C -5.4278 -7.1593 -2.9440 0
M  V30 47 C -5.0295 -6.1096 -2.0962 0
M  V30 48 C -5.5498 -5.9378 -0.7936 0
M  V30 49 C -5.1421 -4.8809 -0.0332 0
M  V30 50 N -4.2783 -3.9482 -0.5041 0
M  V30 51 C -3.7443 -4.0928 -1.7012 0
M  V30 52 C -4.0484 -5.1759 -2.5406 0
M  V30 53 H -3.3974 -6.5623 -5.5799 0
M  V30 54 H -5.1748 -8.0861 -4.8436 0
M  V30 55 H -6.1765 -7.8571 -2.6033 0
M  V30 56 H -6.2634 -6.6498 -0.4112 0
M  V30 57 H -5.4937 -4.7398 0.9865 0
M  V30 58 H -3.0540 -3.3222 -2.0372 0
M  V30 59 C -0.0896 -3.4532 -4.9635 0
M  V30 60 C 0.5524 -3.8727 -6.1331 0
M  V30 61 C 1.7957 -3.3592 -6.4529 0
M  V30 62 C 2.4143 -2.4384 -5.6243 0
M  V30 63 C 1.7829 -2.0047 -4.4558 0
M  V30 64 C 0.5236 -2.5115 -4.1397 0
M  V30 65 H 0.0789 -4.6002 -6.7743 0
M  V30 66 H 2.2937 -3.6884 -7.3522 0
M  V30 67 H 3.4031 -2.0866 -5.8735 0
M  V30 68 H -0.0043 -2.1641 -3.2660 0
M  V30 69 C 2.4309 -1.0447 -3.5572 0
M  V30 70 C 3.2747 -0.0342 -4.0297 0
M  V30 71 C 3.8178 0.8728 -3.1429 0
M  V30 72 N 3.5518 0.8315 -1.8342 0
M  V30 73 C 2.7764 -0.1485 -1.3533 0
M  V30 74 C 2.2152 -1.1009 -2.1735 0
M  V30 75 H 3.4845 0.0603 -5.0825 0
M  V30 76 H 4.4808 1.6663 -3.4752 0
M  V30 77 H 2.6187 -0.1434 -0.2757 0
M  V30 78 H 1.6239 -1.8970 -1.7510 0
M  V30 79 C 4.8489 -2.2670 3.2283 0
M  V30 80 C 5.7816 -1.5817 2.8763 0
M  V30 81 C 6.9425 -0.9201 2.4316 0
M  V30 82 C 8.1769 -1.3182 2.9132 0
M  V30 83 C 9.3605 -0.7697 2.4080 0
M  V30 84 C 9.3328 0.1561 1.3952 0
M  V30 85 C 8.1002 0.5996 0.8824 0
M  V30 86 C 8.0021 1.5280 -0.1785 0
M  V30 87 C 6.7750 1.9397 -0.6096 0
M  V30 88 N 5.6285 1.5207 -0.0193 0
M  V30 89 C 5.6770 0.6276 0.9498 0
M  V30 90 C 6.8841 0.0935 1.4276 0
M  V30 91 H 8.2269 -2.0760 3.6799 0
M  V30 92 H 10.3051 -1.1026 2.8100 0
M  V30 93 H 10.2482 0.5499 0.9821 0
M  V30 94 H 8.9026 1.8995 -0.6408 0
M  V30 95 H 6.6628 2.6245 -1.4475 0
M  V30 96 H 4.7330 0.3175 1.3913 0
M  V30 97 C 3.7764 -3.1230 3.5592 0
M  V30 98 C 3.9832 -4.2004 4.4267 0
M  V30 99 C 2.9485 -5.0813 4.6825 0
M  V30 100 C 1.7112 -4.9109 4.0845 0
M  V30 101 C 1.4876 -3.8364 3.2201 0
M  V30 102 C 2.5260 -2.9404 2.9720 0
M  V30 103 H 4.9499 -4.3433 4.8845 0
M  V30 104 H 3.1107 -5.9164 5.3469 0
M  V30 105 H 0.9339 -5.6362 4.2664 0
M  V30 106 H 2.3698 -2.0808 2.3403 0
M  V30 107 C 0.1900 -3.6485 2.5644 0
M  V30 108 C -1.0148 -3.9999 3.1817 0
M  V30 109 C -2.2103 -3.7470 2.5404 0
M  V30 110 N -2.2616 -3.1565 1.3428 0
M  V30 111 C -1.1201 -2.8481 0.7148 0
M  V30 112 C 0.1108 -3.0884 1.2821 0
M  V30 113 H -1.0213 -4.4410 4.1651 0
M  V30 114 H -3.1636 -4.0108 2.9890 0
M  V30 115 H -1.2276 -2.3960 -0.2701 0
M  V30 116 H 1.0117 -2.8606 0.7360 0
M  V30 117 C 1.3107 4.0483 4.5800 0
M  V30 118 C 2.3223 4.6017 4.2137 0
M  V30 119 C 3.4223 5.3807 3.8064 0
M  V30 120 C 3.8517 6.4230 4.6084 0
M  V30 121 C 4.8607 7.2934 4.1827 0
M  V30 122 C 5.4313 7.1591 2.9417 0
M  V30 123 C 5.0345 6.1070 2.0963 0
M  V30 124 C 5.5594 5.9296 0.7964 0
M  V30 125 C 5.1527 4.8710 0.0380 0
M  V30 126 N 4.2853 3.9416 0.5085 0
M  V30 127 C 3.7469 4.0911 1.7032 0
M  V30 128 C 4.0498 5.1767 2.5399 0
M  V30 129 H 3.3888 6.5758 5.5714 0
M  V30 130 H 5.1721 8.0936 4.8367 0
M  V30 131 H 6.1827 7.8542 2.6015 0
M  V30 132 H 6.2761 6.6390 0.4142 0
M  V30 133 H 5.5080 4.7259 -0.9799 0
M  V30 134 H 3.0538 3.3234 2.0392 0
M  V30 135 C 0.0783 3.4702 4.9535 0
M  V30 136 C -0.5702 3.8987 6.1163 0
M  V30 137 C -1.8155 3.3878 6.4329 0
M  V30 138 C -2.4297 2.4608 5.6078 0
M  V30 139 C -1.7917 2.0184 4.4462 0
M  V30 140 C -0.5304 2.5224 4.1334 0
M  V30 141 H -0.1001 4.6309 6.7547 0
M  V30 142 H -2.3184 3.7238 7.3269 0
M  V30 143 H -3.4197 2.1112 5.8538 0
M  V30 144 H 0.0023 2.1683 3.2655 0
M  V30 145 C -2.4352 1.0524 3.5507 0
M  V30 146 C -3.2821 0.0454 4.0252 0
M  V30 147 C -3.8213 -0.8667 3.1414 0
M  V30 148 N -3.5487 -0.8338 1.8339 0
M  V30 149 C -2.7698 0.1423 1.3508 0
M  V30 150 C -2.2119 1.0994 2.1678 0
M  V30 151 H -3.4973 -0.0421 5.0777 0
M  V30 152 H -4.4865 -1.6579 3.4752 0
M  V30 153 H -2.6061 0.1301 0.2740 0
M  V30 154 H -1.6175 1.8921 1.7437 0
M  V30 END ATOM
M  V30 BEGIN BOND
M  V30 1 3 3 4
M  V30 2 1 4 5
M  V30 3 2 5 6
M  V30 4 1 6 7
M  V30 5 2 7 8
M  V30 6 1 8 9
M  V30 7 2 9 10
M  V30 8 1 10 11
M  V30 9 2 11 12
M  V30 10 1 12 13
M  V30 11 2 13 14
M  V30 12 1 14 5
M  V30 13 1 14 9
M  V30 14 1 6 15
M  V30 15 1 7 16
M  V30 16 1 8 17
M  V30 17 1 10 18
M  V30 18 1 11 19
M  V30 19 1 13 20
M  V30 20 2 21 22
M  V30 21 1 22 23
M  V30 22 2 23 24
M  V30 23 1 24 25
M  V30 24 2 25 26
M  V30 25 1 26 21
M  V30 26 1 22 27
M  V30 27 1 23 28
M  V30 28 1 24 29
M  V30 29 1 26 30
M  V30 30 2 31 32
M  V30 31 1 32 33
M  V30 32 2 33 34
M  V30 33 1 34 35
M  V30 34 2 35 36
M  V30 35 1 36 31
M  V30 36 1 32 37
M  V30 37 1 33 38
M  V30 38 1 35 39
M  V30 39 1 36 40
M  V30 40 1 3 21
M  V30 41 1 25 31
M  V30 42 3 41 42
M  V30 43 1 42 43
M  V30 44 2 43 44
M  V30 45 1 44 45
M  V30 46 2 45 46
M  V30 47 1 46 47
M  V30 48 2 47 48
M  V30 49 1 48 49
M  V30 50 2 49 50
M  V30 51 1 50 51
M  V30 52 2 51 52
M  V30 53 1 52 43
M  V30 54 1 52 47
M  V30 55 1 44 53
M  V30 56 1 45 54
M  V30 57 1 46 55
M  V30 58 1 48 56
M  V30 59 1 49 57
M  V30 60 1 51 58
M  V30 61 2 59 60
M  V30 62 1 60 61
M  V30 63 2 61 62
M  V30 64 1 62 63
M  V30 65 2 63 64
M  V30 66 1 64 59
M  V30 67 1 60 65
M  V30 68 1 61 66
M  V30 69 1 62 67
M  V30 70 1 64 68
M  V30 71 2 69 70
M  V30 72 1 70 71
M  V30 73 2 71 72
M  V30 74 1 72 73
M  V30 75 2 73 74
M  V30 76 1 74 69
M  V30 77 1 70 75
M  V30 78 1 71 76
M  V30 79 1 73 77
M  V30 80 1 74 78
M  V30 81 1 41 59
M  V30 82 1 63 69
M  V30 83 3 79 80
M  V30 84 1 80 81
M  V30 85 2 81 82
M  V30 86 1 82 83
M  V30 87 2 83 84
M  V30 88 1 84 85
M  V30 89 2 85 86
M  V30 90 1 86 87
M  V30 91 2 87 88
M  V30 92 1 88 89
M  V30 93 2 89 90
M  V30 94 1 90 81
M  V30 95 1 90 85
M  V30 96 1 82 91
M  V30 97 1 83 92
M  V30 98 1 84 93
M  V30 99 1 86 94
M  V30 100 1 87 95
M  V30 101 1 89 96
M  V30 102 2 97 98
M  V30 103 1 98 99
M  V30 104 2 99 100
M  V30 105 1 100 101
M  V30 106 2 101 102
M  V30 107 1 102 97
M  V30 108 1 98 103
M  V30 109 1 99 104
M  V30 110 1 100 105
M  V30 111 1 102 106
M  V30 112 2 107 108
M  V30 113 1 108 109
M  V30 114 2 109 110
M  V30 115 1 110 111
M  V30 116 2 111 112
M  V30 117 1 112 107
M  V30 118 1 108 113
M  V30 119 1 109 114
M  V30 120 1 111 115
M  V30 121 1 112 116
M  V30 122 1 79 97
M  V30 123 1 101 107
M  V30 124 3 117 118
M  V30 125 1 118 119
M  V30 126 2 119 120
M  V30 127 1 120 121
M  V30 128 2 121 122
M  V30 129 1 122 123
M  V30 130 2 123 124
M  V30 131 1 124 125
M  V30 132 2 125 126
M  V30 133 1 126 127
M  V30 134 2 127 128
M  V30 135 1 128 119
M  V30 136 1 128 123
M  V30 137 1 120 129
M  V30 138 1 121 130
M  V30 139 1 122 131
M  V30 140 1 124 132
M  V30 141 1 125 133
M  V30 142 1 127 134
M  V30 143 2 135 136
M  V30 144 1 136 137
M  V30 145 2 137 138
M  V30 146 1 138 139
M  V30 147 2 139 140
M  V30 148 1 140 135
M  V30 149 1 136 141
M  V30 150 1 137 142
M  V30 151 1 138 143
M  V30 152 1 140 144
M  V30 153 2 145 146
M  V30 154 1 146 147
M  V30 155 2 147 148
M  V30 156 1 148 149
M  V30 157 2 149 150
M  V30 158 1 150 145
M  V30 159 1 146 151
M  V30 160 1 147 152
M  V30 161 1 149 153
M  V30 162 1 150 154
M  V30 163 1 117 135
M  V30 164 1 139 145
M  V30 165 9 34 1
M  V30 166 9 72 1
M  V30 167 9 88 1
M  V30 168 9 126 1
M  V30 169 9 12 2
M  V30 170 9 50 2
M  V30 171 9 110 2
M  V30 172 9 148 2
M  V30 END BOND
M  V30 END CTAB
M  END

$$$$
