
     RDKit          3D

  0  0  0  0  0  0  0  0  0  0999 V3000
M  V30 BEGIN CTAB
M  V30 COUNTS 154 172 0 0 0
M  V30 BEGIN ATOM
M  V30 1 Pd 0.2362 -2.4109 -3.7914 0 CHG=2
M  V30 2 Pd 0.6125 2.1692 4.3048 0 CHG=2
M  V30 3 C 5.6030 3.3027 0.9592 0
M  V30 4 C 5.5061 3.7573 2.0761 0
M  V30 5 C 5.5373 4.2257 3.4038 0
M  V30 6 C 6.6424 4.9282 3.8499 0
M  V30 7 C 6.7653 5.3053 5.1913 0
M  V30 8 C 5.8078 4.9597 6.1120 0
M  V30 9 C 4.6610 4.2556 5.7019 0
M  V30 10 C 3.6528 3.8441 6.6026 0
M  V30 11 C 2.5505 3.1901 6.1355 0
M  V30 12 N 2.3602 2.9566 4.8136 0
M  V30 13 C 3.2946 3.2932 3.9460 0
M  V30 14 C 4.4934 3.9158 4.3276 0
M  V30 15 H 7.4295 5.1749 3.1539 0
M  V30 16 H 7.6404 5.8554 5.5025 0
M  V30 17 H 5.9232 5.2196 7.1525 0
M  V30 18 H 3.7684 4.0490 7.6549 0
M  V30 19 H 1.7737 2.8270 6.8052 0
M  V30 20 H 3.1014 3.0832 2.8967 0
M  V30 21 C 5.7549 2.6908 -0.3038 0
M  V30 22 C 6.9113 2.9189 -1.0568 0
M  V30 23 C 7.0893 2.2534 -2.2556 0
M  V30 24 C 6.1374 1.3594 -2.7160 0
M  V30 25 C 4.9744 1.1254 -1.9779 0
M  V30 26 C 4.7879 1.8056 -0.7757 0
M  V30 27 H 7.6611 3.6055 -0.6949 0
M  V30 28 H 7.9851 2.4249 -2.8331 0
M  V30 29 H 6.3200 0.8208 -3.6324 0
M  V30 30 H 3.8824 1.6741 -0.2055 0
M  V30 31 C 3.9631 0.1702 -2.4400 0
M  V30 32 C 3.6940 -0.0323 -3.7975 0
M  V30 33 C 2.6911 -0.9025 -4.1729 0
M  V30 34 N 1.9467 -1.5560 -3.2761 0
M  V30 35 C 2.2122 -1.4091 -1.9721 0
M  V30 36 C 3.2099 -0.5744 -1.5220 0
M  V30 37 H 4.2430 0.5051 -4.5535 0
M  V30 38 H 2.4587 -1.0864 -5.2178 0
M  V30 39 H 1.5901 -1.9901 -1.2928 0
M  V30 40 H 3.4220 -0.5044 -0.4674 0
M  V30 41 C -1.1738 5.9063 -0.1688 0
M  V30 42 C -1.1252 6.3132 0.9696 0
M  V30 43 C -1.2164 6.8340 2.2746 0
M  V30 44 C -1.6523 8.1338 2.4593 0
M  V30 45 C -1.8718 8.6466 3.7422 0
M  V30 46 C -1.6934 7.8635 4.8552 0
M  V30 47 C -1.2399 6.5389 4.7168 0
M  V30 48 C -1.0637 5.6708 5.8179 0
M  V30 49 C -0.5927 4.4062 5.6172 0
M  V30 50 N -0.2375 3.9587 4.3879 0
M  V30 51 C -0.4201 4.7267 3.3314 0
M  V30 52 C -0.9551 6.0214 3.4196 0
M  V30 53 H -1.8412 8.7566 1.5983 0
M  V30 54 H -2.2091 9.6664 3.8477 0
M  V30 55 H -1.8993 8.2501 5.8410 0
M  V30 56 H -1.3089 6.0174 6.8090 0
M  V30 57 H -0.4808 3.7001 6.4372 0
M  V30 58 H -0.1239 4.3260 2.3647 0
M  V30 59 C -1.3252 5.4015 -1.4783 0
M  V30 60 C -1.7949 6.2353 -2.4982 0
M  V30 61 C -2.0195 5.7140 -3.7590 0
M  V30 62 C -1.7897 4.3739 -4.0208 0
M  V30 63 C -1.3144 3.5297 -3.0141 0
M  V30 64 C -1.0748 4.0574 -1.7463 0
M  V30 65 H -1.9875 7.2774 -2.2942 0
M  V30 66 H -2.3884 6.3565 -4.5441 0
M  V30 67 H -2.0148 3.9826 -5.0004 0
M  V30 68 H -0.6694 3.4384 -0.9621 0
M  V30 69 C -1.0834 2.1046 -3.2680 0
M  V30 70 C -0.6542 1.6293 -4.5114 0
M  V30 71 C -0.4044 0.2826 -4.6792 0
M  V30 72 N -0.5436 -0.5942 -3.6807 0
M  V30 73 C -0.9886 -0.1688 -2.4916 0
M  V30 74 C -1.2776 1.1560 -2.2546 0
M  V30 75 H -0.4905 2.3070 -5.3333 0
M  V30 76 H -0.0751 -0.1206 -5.6324 0
M  V30 77 H -1.1063 -0.9353 -1.7270 0
M  V30 78 H -1.6670 1.4609 -1.2969 0
M  V30 79 C -4.7516 -3.5477 -0.4431 0
M  V30 80 C -4.6571 -3.9968 -1.5625 0
M  V30 81 C -4.6919 -4.4585 -2.8925 0
M  V30 82 C -5.8003 -5.1551 -3.3400 0
M  V30 83 C -5.9270 -5.5254 -4.6830 0
M  V30 84 C -4.9698 -5.1787 -5.6036 0
M  V30 85 C -3.8198 -4.4806 -5.1922 0
M  V30 86 C -2.8116 -4.0686 -6.0926 0
M  V30 87 C -1.7062 -3.4204 -5.6244 0
M  V30 88 N -1.5130 -3.1935 -4.3017 0
M  V30 89 C -2.4471 -3.5310 -3.4340 0
M  V30 90 C -3.6487 -4.1480 -3.8166 0
M  V30 91 H -6.5870 -5.4024 -2.6439 0
M  V30 92 H -6.8044 -6.0707 -4.9953 0
M  V30 93 H -5.0878 -5.4332 -6.6452 0
M  V30 94 H -2.9295 -4.2682 -7.1456 0
M  V30 95 H -0.9293 -3.0572 -6.2938 0
M  V30 96 H -2.2514 -3.3266 -2.3842 0
M  V30 97 C -4.9004 -2.9419 0.8230 0
M  V30 98 C -6.0517 -3.1788 1.5809 0
M  V30 99 C -6.2271 -2.5190 2.7834 0
M  V30 100 C -5.2773 -1.6220 3.2425 0
M  V30 101 C -4.1195 -1.3790 2.4994 0
M  V30 102 C -3.9355 -2.0536 1.2937 0
M  V30 103 H -6.7999 -3.8677 1.2200 0
M  V30 104 H -7.1190 -2.6973 3.3647 0
M  V30 105 H -5.4581 -1.0879 4.1618 0
M  V30 106 H -3.0336 -1.9149 0.7194 0
M  V30 107 C -3.1104 -0.4208 2.9602 0
M  V30 108 C -2.8353 -0.2227 4.3171 0
M  V30 109 C -1.8343 0.6504 4.6910 0
M  V30 110 N -1.0971 1.3106 3.7932 0
M  V30 111 C -1.3689 1.1680 2.4899 0
M  V30 112 C -2.3653 0.3310 2.0414 0
M  V30 113 H -3.3781 -0.7655 5.0736 0
M  V30 114 H -1.5975 0.8310 5.7356 0
M  V30 115 H -0.7528 1.7544 1.8098 0
M  V30 116 H -2.5825 0.2648 0.9877 0
M  V30 117 C 2.0479 -6.1432 0.6787 0
M  V30 118 C 1.9949 -6.5508 -0.4592 0
M  V30 119 C 2.0814 -7.0723 -1.7643 0
M  V30 120 C 2.5204 -8.3710 -1.9500 0
M  V30 121 C 2.7350 -8.8842 -3.2336 0
M  V30 122 C 2.5486 -8.1026 -4.3463 0
M  V30 123 C 2.0919 -6.7793 -4.2067 0
M  V30 124 C 1.9080 -5.9126 -5.3075 0
M  V30 125 C 1.4347 -4.6490 -5.1057 0
M  V30 126 N 1.0842 -4.2014 -3.8751 0
M  V30 127 C 1.2738 -4.9680 -2.8188 0
M  V30 128 C 1.8119 -6.2614 -2.9086 0
M  V30 129 H 2.7154 -8.9924 -1.0894 0
M  V30 130 H 3.0748 -9.9031 -3.3399 0
M  V30 131 H 2.7506 -8.4894 -5.3327 0
M  V30 132 H 2.1493 -6.2594 -6.2997 0
M  V30 133 H 1.3171 -3.9440 -5.9257 0
M  V30 134 H 0.9814 -4.5675 -1.8510 0
M  V30 135 C 2.2040 -5.6368 1.9871 0
M  V30 136 C 2.6859 -6.4669 3.0043 0
M  V30 137 C 2.9143 -5.9436 4.2637 0
M  V30 138 C 2.6764 -4.6051 4.5266 0
M  V30 139 C 2.1891 -3.7648 3.5224 0
M  V30 140 C 1.9454 -4.2944 2.2564 0
M  V30 141 H 2.8848 -7.5076 2.7993 0
M  V30 142 H 3.2925 -6.5832 5.0466 0
M  V30 143 H 2.9045 -4.2118 5.5045 0
M  V30 144 H 1.5308 -3.6787 1.4743 0
M  V30 145 C 1.9501 -2.3410 3.7771 0
M  V30 146 C 1.5250 -1.8677 5.0228 0
M  V30 147 C 1.2684 -0.5225 5.1914 0
M  V30 148 N 1.3969 0.3547 4.1919 0
M  V30 149 C 1.8372 -0.0686 3.0004 0
M  V30 150 C 2.1325 -1.3918 2.7621 0
M  V30 151 H 1.3702 -2.5462 5.8458 0
M  V30 152 H 0.9420 -0.1206 6.1462 0
M  V30 153 H 1.9457 0.6982 2.2345 0
M  V30 154 H 2.5177 -1.6952 1.8023 0
M  V30 END ATOM
M  V30 BEGIN BOND
M  V30 1 3 3 4
M  V30 2 1 4 5
M  V30 3 2 5 6
M  V30 4 1 6 7
M  V30 5 2 7 8
M  V30 6 1 8 9
M  V30 7 2 9 10
M  V30 8 1 10 11
M  V30 9 2 11 12
M  V30 10 1 12 13
M  V30 11 2 13 14
M  V30 12 1 14 5
M  V30 13 1 14 9
M  V30 14 1 6 15
M  V30 15 1 7 16
M  V30 16 1 8 17
M  V30 17 1 10 18
M  V30 18 1 11 19
M  V30 19 1 13 20
M  V30 20 2 21 22
M  V30 21 1 22 23
M  V30 22 2 23 24
M  V30 23 1 24 25
M  V30 24 2 25 26
M  V30 25 1 26 21
M  V30 26 1 22 27
M  V30 27 1 23 28
M  V30 28 1 24 29
M  V30 29 1 26 30
M  V30 30 2 31 32
M  V30 31 1 32 33
M  V30 32 2 33 34
M  V30 33 1 34 35
M  V30 34 2 35 36
M  V30 35 1 36 31
M  V30 36 1 32 37
M  V30 37 1 33 38
M  V30 38 1 35 39
M  V30 39 1 36 40
M  V30 40 1 3 21
M  V30 41 1 25 31
M  V30 42 3 41 42
M  V30 43 1 42 43
M  V30 44 2 43 44
M  V30 45 1 44 45
M  V30 46 2 45 46
M  V30 47 1 46 47
M  V30 48 2 47 48
M  V30 49 1 48 49
M  V30 50 2 49 50
M  V30 51 1 50 51
M  V30 52 2 51 52
M  V30 53 1 52 43
M  V30 54 1 52 47
M  V30 55 1 44 53
M  V30 56 1 45 54
M  V30 57 1 46 55
M  V30 58 1 48 56
M  V30 59 1 49 57
M  V30 60 1 51 58
M  V30 61 2 59 60
M  V30 62 1 60 61
M  V30 63 2 61 62
M  V30 64 1 62 63
M  V30 65 2 63 64
M  V30 66 1 64 59
M  V30 67 1 60 65
M  V30 68 1 61 66
M  V30 69 1 62 67
M  V30 70 1 64 68
M  V30 71 2 69 70
M  V30 72 1 70 71
M  V30 73 2 71 72
M  V30 74 1 72 73
M  V30 75 2 73 74
M  V30 76 1 74 69
M  V30 77 1 70 75
M  V30 78 1 71 76
M  V30 79 1 73 77
M  V30 80 1 74 78
M  V30 81 1 41 59
M  V30 82 1 63 69
M  V30 83 3 79 80
M  V30 84 1 80 81
M  V30 85 2 81 82
M  V30 86 1 82 83
M  V30 87 2 83 84
M  V30 88 1 84 85
M  V30 89 2 85 86
M  V30 90 1 86 87
M  V30 91 2 87 88
M  V30 92 1 88 89
M  V30 93 2 89 90
M  V30 94 1 90 81
M  V30 95 1 90 85
M  V30 96 1 82 91
M  V30 97 1 83 92
M  V30 98 1 84 93
M  V30 99 1 86 94
M  V30 100 1 87 95
M  V30 101 1 89 96
M  V30 102 2 97 98
M  V30 103 1 98 99
M  V30 104 2 99 100
M  V30 105 1 100 101
M  V30 106 2 101 102
M  V30 107 1 102 97
M  V30 108 1 98 103
M  V30 109 1 99 104
M  V30 110 1 100 105
M  V30 111 1 102 106
M  V30 112 2 107 108
M  V30 113 1 108 109
M  V30 114 2 109 110
M  V30 115 1 110 111
M  V30 116 2 111 112
M  V30 117 1 112 107
M  V30 118 1 108 113
M  V30 119 1 109 114
M  V30 120 1 111 115
M  V30 121 1 112 116
M  V30 122 1 79 97
M  V30 123 1 101 107
M  V30 124 3 117 118
M  V30 125 1 118 119
M  V30 126 2 119 120
M  V30 127 1 120 121
M  V30 128 2 121 122
M  V30 129 1 122 123
M  V30 130 2 123 124
M  V30 131 1 124 125
M  V30 132 2 125 126
M  V30 133 1 126 127
M  V30 134 2 127 128
M  V30 135 1 128 119
M  V30 136 1 128 123
M  V30 137 1 120 129
M  V30 138 1 121 130
M  V30 139 1 122 131
M  V30 140 1 124 132
M  V30 141 1 125 133
M  V30 142 1 127 134
M  V30 143 2 135 136
M  V30 144 1 136 137
M  V30 145 2 137 138
M  V30 146 1 138 139
M  V30 147 2 139 140
M  V30 148 1 140 135
M  V30 149 1 136 141
M  V30 150 1 137 142
M  V30 151 1 138 143
M  V30 152 1 140 144
M  V30 153 2 145 146
M  V30 154 1 146 147
M  V30 155 2 147 148
M  V30 156 1 148 149
M  V30 157 2 149 150
M  V30 158 1 150 145
M  V30 159 1 146 151
M  V30 160 1 147 152
M  V30 161 1 149 153
M  V30 162 1 150 154
M  V30 163 1 117 135
M  V30 164 1 139 145
M  V30 165 9 34 1
M  V30 166 9 72 1
M  V30 167 9 88 1
M  V30 168 9 126 1
M  V30 169 9 12 2
M  V30 170 9 50 2
M  V30 171 9 110 2
M  V30 172 9 148 2
M  V30 END BOND
M  V30 END CTAB
M  END

$$$$
