
     RDKit          3D

  0  0  0  0  0  0  0  0  0  0999 V3000
M  V30 BEGIN CTAB
M  V30 COUNTS 154 172 0 0 0
M  V30 BEGIN ATOM
M  V30 1 Pd -0.6466 4.5512 0.5321 0 CHG=2
M  V30 2 Pd 0.6863 -4.6232 -0.3170 0 CHG=2
M  V30 3 C 6.0139 -1.6389 -0.6232 0
M  V30 4 C 5.9806 -2.8376 -0.7839 0
M  V30 5 C 6.0250 -4.2082 -1.1040 0
M  V30 6 C 7.2386 -4.7924 -1.4199 0
M  V30 7 C 7.3093 -6.1185 -1.8592 0
M  V30 8 C 6.1718 -6.8694 -2.0221 0
M  V30 9 C 4.9165 -6.3209 -1.7018 0
M  V30 10 C 3.7057 -7.0290 -1.8738 0
M  V30 11 C 2.5236 -6.4500 -1.5156 0
M  V30 12 N 2.4690 -5.2194 -0.9490 0
M  V30 13 C 3.5733 -4.5130 -0.8053 0
M  V30 14 C 4.8340 -4.9905 -1.1968 0
M  V30 15 H 8.1435 -4.2095 -1.3410 0
M  V30 16 H 8.2741 -6.5418 -2.0938 0
M  V30 17 H 6.2261 -7.8796 -2.3964 0
M  V30 18 H 3.7291 -8.0225 -2.2922 0
M  V30 19 H 1.5706 -6.9522 -1.6686 0
M  V30 20 H 3.4820 -3.5297 -0.3502 0
M  V30 21 C 6.0354 -0.2305 -0.5325 0
M  V30 22 C 7.2479 0.4587 -0.6381 0
M  V30 23 C 7.2519 1.8414 -0.6292 0
M  V30 24 C 6.0678 2.5510 -0.5222 0
M  V30 25 C 4.8492 1.8768 -0.4102 0
M  V30 26 C 4.8452 0.4830 -0.4059 0
M  V30 27 H 8.1715 -0.0912 -0.7342 0
M  V30 28 H 8.1875 2.3727 -0.7174 0
M  V30 29 H 6.0939 3.6285 -0.5613 0
M  V30 30 H 3.9238 -0.0628 -0.2812 0
M  V30 31 C 3.5836 2.6101 -0.3133 0
M  V30 32 C 3.4859 3.8460 0.3341 0
M  V30 33 C 2.2572 4.4642 0.4448 0
M  V30 34 N 1.1396 3.9117 -0.0359 0
M  V30 35 C 1.2143 2.7485 -0.6947 0
M  V30 36 C 2.4072 2.0825 -0.8628 0
M  V30 37 H 4.3555 4.3081 0.7721 0
M  V30 38 H 2.1462 5.4259 0.9371 0
M  V30 39 H 0.2739 2.3643 -1.0874 0
M  V30 40 H 2.4397 1.1653 -1.4282 0
M  V30 41 C 1.9305 -2.8134 5.3703 0
M  V30 42 C 1.9897 -3.9883 5.0879 0
M  V30 43 C 1.9636 -5.3809 4.8811 0
M  V30 44 C 2.2523 -6.2304 5.9341 0
M  V30 45 C 2.1189 -7.6166 5.8011 0
M  V30 46 C 1.6649 -8.1729 4.6313 0
M  V30 47 C 1.3699 -7.3490 3.5298 0
M  V30 48 C 0.8714 -7.8538 2.3077 0
M  V30 49 C 0.6333 -7.0030 1.2679 0
M  V30 50 N 0.9048 -5.6773 1.3481 0
M  V30 51 C 1.3377 -5.1631 2.4828 0
M  V30 52 C 1.5577 -5.9396 3.6311 0
M  V30 53 H 2.5701 -5.8150 6.8781 0
M  V30 54 H 2.3561 -8.2486 6.6433 0
M  V30 55 H 1.5275 -9.2393 4.5441 0
M  V30 56 H 0.6794 -8.9104 2.2111 0
M  V30 57 H 0.2146 -7.3525 0.3267 0
M  V30 58 H 1.5397 -4.0945 2.5026 0
M  V30 59 C 1.7636 -1.4563 5.7209 0
M  V30 60 C 1.9857 -1.0428 7.0384 0
M  V30 61 C 1.7408 0.2708 7.3937 0
M  V30 62 C 1.2724 1.1798 6.4601 0
M  V30 63 C 1.0519 0.7835 5.1385 0
M  V30 64 C 1.3115 -0.5372 4.7762 0
M  V30 65 H 2.3381 -1.7519 7.7716 0
M  V30 66 H 1.9059 0.5877 8.4122 0
M  V30 67 H 1.0472 2.1871 6.7729 0
M  V30 68 H 1.1892 -0.8601 3.7549 0
M  V30 69 C 0.5385 1.7274 4.1412 0
M  V30 70 C 0.8595 3.0884 4.1689 0
M  V30 71 C 0.3883 3.9220 3.1753 0
M  V30 72 N -0.3601 3.4691 2.1654 0
M  V30 73 C -0.7110 2.1772 2.1372 0
M  V30 74 C -0.2959 1.2894 3.1037 0
M  V30 75 H 1.4932 3.4890 4.9431 0
M  V30 76 H 0.6141 4.9844 3.1692 0
M  V30 77 H -1.3433 1.8753 1.3035 0
M  V30 78 H -0.6243 0.2633 3.0715 0
M  V30 79 C -5.9742 1.5667 0.8333 0
M  V30 80 C -5.9396 2.7644 1.0004 0
M  V30 81 C -5.9832 4.1333 1.3280 0
M  V30 82 C -7.1962 4.7154 1.6505 0
M  V30 83 C -7.2660 6.0392 2.0974 0
M  V30 84 C -6.1283 6.7893 2.2611 0
M  V30 85 C -4.8737 6.2431 1.9343 0
M  V30 86 C -3.6626 6.9507 2.1065 0
M  V30 87 C -2.4813 6.3739 1.7420 0
M  V30 88 N -2.4279 5.1463 1.1690 0
M  V30 89 C -3.5324 4.4403 1.0245 0
M  V30 90 C -4.7922 4.9154 1.4218 0
M  V30 91 H -8.1010 4.1327 1.5709 0
M  V30 92 H -8.2302 6.4608 2.3371 0
M  V30 93 H -6.1817 7.7975 2.6411 0
M  V30 94 H -3.6852 7.9420 2.5301 0
M  V30 95 H -1.5281 6.8758 1.8950 0
M  V30 96 H -3.4420 3.4595 0.5638 0
M  V30 97 C -5.9968 0.1588 0.7351 0
M  V30 98 C -7.2106 -0.5295 0.8296 0
M  V30 99 C -7.2161 -1.9122 0.8136 0
M  V30 100 C -6.0319 -2.6226 0.7104 0
M  V30 101 C -4.8121 -1.9491 0.6097 0
M  V30 102 C -4.8067 -0.5552 0.6124 0
M  V30 103 H -8.1343 0.0207 0.9227 0
M  V30 104 H -8.1526 -2.4430 0.8931 0
M  V30 105 H -6.0594 -3.7002 0.7440 0
M  V30 106 H -3.8838 -0.0099 0.4966 0
M  V30 107 C -3.5465 -2.6829 0.5167 0
M  V30 108 C -3.4460 -3.9155 -0.1366 0
M  V30 109 C -2.2171 -4.5340 -0.2435 0
M  V30 110 N -1.1017 -3.9848 0.2462 0
M  V30 111 C -1.1796 -2.8252 0.9110 0
M  V30 112 C -2.3729 -2.1593 1.0759 0
M  V30 113 H -4.3134 -4.3747 -0.5820 0
M  V30 114 H -2.1040 -5.4933 -0.7403 0
M  V30 115 H -0.2413 -2.4438 1.3111 0
M  V30 116 H -2.4079 -1.2453 1.6463 0
M  V30 117 C -1.8666 2.7454 -5.1640 0
M  V30 118 C -1.9299 3.9197 -4.8799 0
M  V30 119 C -1.9081 5.3121 -4.6709 0
M  V30 120 C -2.1935 6.1624 -5.7243 0
M  V30 121 C -2.0643 7.5487 -5.5887 0
M  V30 122 C -1.6177 8.1044 -4.4159 0
M  V30 123 C -1.3264 7.2797 -3.3140 0
M  V30 124 C -0.8349 7.7840 -2.0888 0
M  V30 125 C -0.5995 6.9324 -1.0492 0
M  V30 126 N -0.8673 5.6061 -1.1323 0
M  V30 127 C -1.2936 5.0923 -2.2698 0
M  V30 128 C -1.5100 5.8700 -3.4181 0
M  V30 129 H -2.5054 5.7474 -6.6705 0
M  V30 130 H -2.2988 8.1812 -6.4313 0
M  V30 131 H -1.4836 9.1710 -4.3264 0
M  V30 132 H -0.6461 8.8410 -1.9898 0
M  V30 133 H -0.1861 7.2818 -0.1056 0
M  V30 134 H -1.4926 4.0235 -2.2922 0
M  V30 135 C -1.6948 1.3891 -5.5153 0
M  V30 136 C -1.9043 0.9778 -6.8356 0
M  V30 137 C -1.6549 -0.3350 -7.1908 0
M  V30 138 C -1.1943 -1.2453 -6.2545 0
M  V30 139 C -0.9862 -0.8510 -4.9304 0
M  V30 140 C -1.2505 0.4687 -4.5682 0
M  V30 141 H -2.2506 1.6878 -7.5708 0
M  V30 142 H -1.8104 -0.6503 -8.2114 0
M  V30 143 H -0.9653 -2.2518 -6.5668 0
M  V30 144 H -1.1381 0.7902 -3.5452 0
M  V30 145 C -0.4804 -1.7958 -3.9302 0
M  V30 146 C -0.7994 -3.1573 -3.9625 0
M  V30 147 C -0.3347 -3.9919 -2.9667 0
M  V30 148 N 0.4050 -3.5395 -1.9502 0
M  V30 149 C 0.7537 -2.2472 -1.9169 0
M  V30 150 C 0.3448 -1.3583 -2.8851 0
M  V30 151 H -1.4264 -3.5574 -4.7425 0
M  V30 152 H -0.5592 -5.0545 -2.9638 0
M  V30 153 H 1.3786 -1.9454 -1.0775 0
M  V30 154 H 0.6708 -0.3317 -2.8485 0
M  V30 END ATOM
M  V30 BEGIN BOND
M  V30 1 3 3 4
M  V30 2 1 4 5
M  V30 3 2 5 6
M  V30 4 1 6 7
M  V30 5 2 7 8
M  V30 6 1 8 9
M  V30 7 2 9 10
M  V30 8 1 10 11
M  V30 9 2 11 12
M  V30 10 1 12 13
M  V30 11 2 13 14
M  V30 12 1 14 5
M  V30 13 1 14 9
M  V30 14 1 6 15
M  V30 15 1 7 16
M  V30 16 1 8 17
M  V30 17 1 10 18
M  V30 18 1 11 19
M  V30 19 1 13 20
M  V30 20 2 21 22
M  V30 21 1 22 23
M  V30 22 2 23 24
M  V30 23 1 24 25
M  V30 24 2 25 26
M  V30 25 1 26 21
M  V30 26 1 22 27
M  V30 27 1 23 28
M  V30 28 1 24 29
M  V30 29 1 26 30
M  V30 30 2 31 32
M  V30 31 1 32 33
M  V30 32 2 33 34
M  V30 33 1 34 35
M  V30 34 2 35 36
M  V30 35 1 36 31
M  V30 36 1 32 37
M  V30 37 1 33 38
M  V30 38 1 35 39
M  V30 39 1 36 40
M  V30 40 1 3 21
M  V30 41 1 25 31
M  V30 42 3 41 42
M  V30 43 1 42 43
M  V30 44 2 43 44
M  V30 45 1 44 45
M  V30 46 2 45 46
M  V30 47 1 46 47
M  V30 48 2 47 48
M  V30 49 1 48 49
M  V30 50 2 49 50
M  V30 51 1 50 51
M  V30 52 2 51 52
M  V30 53 1 52 43
M  V30 54 1 52 47
M  V30 55 1 44 53
M  V30 56 1 45 54
M  V30 57 1 46 55
M  V30 58 1 48 56
M  V30 59 1 49 57
M  V30 60 1 51 58
M  V30 61 2 59 60
M  V30 62 1 60 61
M  V30 63 2 61 62
M  V30 64 1 62 63
M  V30 65 2 63 64
M  V30 66 1 64 59
M  V30 67 1 60 65
M  V30 68 1 61 66
M  V30 69 1 62 67
M  V30 70 1 64 68
M  V30 71 2 69 70
M  V30 72 1 70 71
M  V30 73 2 71 72
M  V30 74 1 72 73
M  V30 75 2 73 74
M  V30 76 1 74 69
M  V30 77 1 70 75
M  V30 78 1 71 76
M  V30 79 1 73 77
M  V30 80 1 74 78
M  V30 81 1 41 59
M  V30 82 1 63 69
M  V30 83 3 79 80
M  V30 84 1 80 81
M  V30 85 2 81 82
M  V30 86 1 82 83
M  V30 87 2 83 84
M  V30 88 1 84 85
M  V30 89 2 85 86
M  V30 90 1 86 87
M  V30 91 2 87 88
M  V30 92 1 88 89
M  V30 93 2 89 90
M  V30 94 1 90 81
M  V30 95 1 90 85
M  V30 96 1 82 91
M  V30 97 1 83 92
M  V30 98 1 84 93
M  V30 99 1 86 94
M  V30 100 1 87 95
M  V30 101 1 89 96
M  V30 102 2 97 98
M  V30 103 1 98 99
M  V30 104 2 99 100
M  V30 105 1 100 101
M  V30 106 2 101 102
M  V30 107 1 102 97
M  V30 108 1 98 103
M  V30 109 1 99 104
M  V30 110 1 100 105
M  V30 111 1 102 106
M  V30 112 2 107 108
M  V30 113 1 108 109
M  V30 114 2 109 110
M  V30 115 1 110 111
M  V30 116 2 111 112
M  V30 117 1 112 107
M  V30 118 1 108 113
M  V30 119 1 109 114
M  V30 120 1 111 115
M  V30 121 1 112 116
M  V30 122 1 79 97
M  V30 123 1 101 107
M  V30 124 3 117 118
M  V30 125 1 118 119
M  V30 126 2 119 120
M  V30 127 1 120 121
M  V30 128 2 121 122
M  V30 129 1 122 123
M  V30 130 2 123 124
M  V30 131 1 124 125
M  V30 132 2 125 126
M  V30 133 1 126 127
M  V30 134 2 127 128
M  V30 135 1 128 119
M  V30 136 1 128 123
M  V30 137 1 120 129
M  V30 138 1 121 130
M  V30 139 1 122 131
M  V30 140 1 124 132
M  V30 141 1 125 133
M  V30 142 1 127 134
M  V30 143 2 135 136
M  V30 144 1 136 137
M  V30 145 2 137 138
M  V30 146 1 138 139
M  V30 147 2 139 140
M  V30 148 1 140 135
M  V30 149 1 136 141
M  V30 150 1 137 142
M  V30 151 1 138 143
M  V30 152 1 140 144
M  V30 153 2 145 146
M  V30 154 1 146 147
M  V30 155 2 147 148
M  V30 156 1 148 149
M  V30 157 2 149 150
M  V30 158 1 150 145
M  V30 159 1 146 151
M  V30 160 1 147 152
M  V30 161 1 149 153
M  V30 162 1 150 154
M  V30 163 1 117 135
M  V30 164 1 139 145
M  V30 165 9 34 1
M  V30 166 9 72 1
M  V30 167 9 88 1
M  V30 168 9 126 1
M  V30 169 9 12 2
M  V30 170 9 50 2
M  V30 171 9 110 2
M  V30 172 9 148 2
M  V30 END BOND
M  V30 END CTAB
M  END

$$$$
