
     RDKit          3D

  0  0  0  0  0  0  0  0  0  0999 V3000
M  V30 BEGIN CTAB
M  V30 COUNTS 154 172 0 0 0
M  V30 BEGIN ATOM
M  V30 1 Pd 0.9555 4.2679 -1.2271 0 CHG=2
M  V30 2 Pd -0.8148 -4.5853 1.0433 0 CHG=2
M  V30 3 C 4.8984 -3.0665 2.6039 0
M  V30 4 C 4.5093 -4.2016 2.7585 0
M  V30 5 C 4.1874 -5.5687 2.8611 0
M  V30 6 C 5.1381 -6.4563 3.3323 0
M  V30 7 C 4.9002 -7.8347 3.3364 0
M  V30 8 C 3.7283 -8.3498 2.8411 0
M  V30 9 C 2.7277 -7.4845 2.3623 0
M  V30 10 C 1.5118 -7.9502 1.8130 0
M  V30 11 C 0.5699 -7.0570 1.3936 0
M  V30 12 N 0.7388 -5.7185 1.5282 0
M  V30 13 C 1.8741 -5.2443 2.0028 0
M  V30 14 C 2.9317 -6.0744 2.4064 0
M  V30 15 H 6.0849 -6.0791 3.6877 0
M  V30 16 H 5.6642 -8.4969 3.7144 0
M  V30 17 H 3.5627 -9.4153 2.8112 0
M  V30 18 H 1.3429 -9.0117 1.7270 0
M  V30 19 H -0.3609 -7.3808 0.9324 0
M  V30 20 H 1.9675 -4.1644 2.0893 0
M  V30 21 C 5.3782 -1.7672 2.3315 0
M  V30 22 C 6.6958 -1.4266 2.6541 0
M  V30 23 C 7.1833 -0.1788 2.3113 0
M  V30 24 C 6.3824 0.7350 1.6474 0
M  V30 25 C 5.0624 0.4114 1.3235 0
M  V30 26 C 4.5660 -0.8412 1.6801 0
M  V30 27 H 7.3266 -2.1409 3.1604 0
M  V30 28 H 8.2023 0.0811 2.5547 0
M  V30 29 H 6.7996 1.6850 1.3528 0
M  V30 30 H 3.5398 -1.1028 1.4778 0
M  V30 31 C 4.2043 1.3587 0.6057 0
M  V30 32 C 4.3072 2.7419 0.7857 0
M  V30 33 C 3.4346 3.5835 0.1266 0
M  V30 34 N 2.4721 3.1198 -0.6758 0
M  V30 35 C 2.3796 1.8022 -0.8951 0
M  V30 36 C 3.2269 0.9024 -0.2892 0
M  V30 37 H 5.0429 3.1565 1.4554 0
M  V30 38 H 3.4893 4.6623 0.2402 0
M  V30 39 H 1.5937 1.4893 -1.5809 0
M  V30 40 H 3.1492 -0.1492 -0.5133 0
M  V30 41 C -1.3077 -0.9958 5.9465 0
M  V30 42 C -1.5626 -2.1749 6.0379 0
M  V30 43 C -1.9961 -3.5040 6.2067 0
M  V30 44 C -2.4552 -3.9175 7.4444 0
M  V30 45 C -3.0063 -5.1911 7.6216 0
M  V30 46 C -3.1388 -6.0561 6.5641 0
M  V30 47 C -2.6753 -5.6831 5.2893 0
M  V30 48 C -2.8074 -6.5133 4.1534 0
M  V30 49 C -2.3098 -6.1034 2.9509 0
M  V30 50 N -1.6419 -4.9321 2.8117 0
M  V30 51 C -1.5287 -4.1144 3.8403 0
M  V30 52 C -2.0574 -4.4117 5.1060 0
M  V30 53 H -2.4016 -3.2401 8.2828 0
M  V30 54 H -3.3514 -5.4803 8.6025 0
M  V30 55 H -3.5982 -7.0231 6.6962 0
M  V30 56 H -3.3064 -7.4643 4.2487 0
M  V30 57 H -2.4273 -6.7005 2.0492 0
M  V30 58 H -0.9874 -3.1843 3.6824 0
M  V30 59 C -1.1067 0.3951 5.8136 0
M  V30 60 C -1.2794 1.2344 6.9190 0
M  V30 61 C -1.1621 2.6034 6.7634 0
M  V30 62 C -0.8812 3.1522 5.5236 0
M  V30 63 C -0.6997 2.3264 4.4113 0
M  V30 64 C -0.8042 0.9456 4.5698 0
M  V30 65 H -1.5114 0.8107 7.8840 0
M  V30 66 H -1.3020 3.2511 7.6155 0
M  V30 67 H -0.8387 4.2249 5.4200 0
M  V30 68 H -0.6287 0.2828 3.7377 0
M  V30 69 C -0.4204 2.8908 3.0875 0
M  V30 70 C 0.3225 4.0639 2.9193 0
M  V30 71 C 0.5974 4.5222 1.6471 0
M  V30 72 N 0.1889 3.8702 0.5548 0
M  V30 73 C -0.5550 2.7651 0.6904 0
M  V30 74 C -0.8865 2.2586 1.9266 0
M  V30 75 H 0.7057 4.5999 3.7721 0
M  V30 76 H 1.1669 5.4319 1.4806 0
M  V30 77 H -0.8793 2.2945 -0.2367 0
M  V30 78 H -1.5158 1.3868 2.0022 0
M  V30 79 C -4.7559 2.7468 -2.7918 0
M  V30 80 C -4.3686 3.8833 -2.9402 0
M  V30 81 C -4.0494 5.2516 -3.0356 0
M  V30 82 C -5.0029 6.1398 -3.5006 0
M  V30 83 C -4.7680 7.5188 -3.4973 0
M  V30 84 C -3.5964 8.0336 -3.0009 0
M  V30 85 C -2.5933 7.1679 -2.5286 0
M  V30 86 C -1.3774 7.6332 -1.9788 0
M  V30 87 C -0.4328 6.7397 -1.5657 0
M  V30 88 N -0.5993 5.4016 -1.7070 0
M  V30 89 C -1.7343 4.9275 -2.1825 0
M  V30 90 C -2.7943 5.7575 -2.5801 0
M  V30 91 H -5.9493 5.7625 -3.8565 0
M  V30 92 H -5.5340 8.1813 -3.8703 0
M  V30 93 H -3.4331 9.0993 -2.9653 0
M  V30 94 H -1.2105 8.6945 -1.8875 0
M  V30 95 H 0.4979 7.0632 -1.1043 0
M  V30 96 H -1.8254 3.8478 -2.2747 0
M  V30 97 C -5.2337 1.4454 -2.5264 0
M  V30 98 C -6.5478 1.1013 -2.8591 0
M  V30 99 C -7.0337 -0.1488 -2.5230 0
M  V30 100 C -6.2345 -1.0618 -1.8557 0
M  V30 101 C -4.9181 -0.7348 -1.5215 0
M  V30 102 C -4.4231 0.5204 -1.8716 0
M  V30 103 H -7.1774 1.8149 -3.3681 0
M  V30 104 H -8.0501 -0.4114 -2.7742 0
M  V30 105 H -6.6508 -2.0138 -1.5664 0
M  V30 106 H -3.3993 0.7847 -1.6611 0
M  V30 107 C -4.0617 -1.6810 -0.8003 0
M  V30 108 C -4.1588 -3.0640 -0.9848 0
M  V30 109 C -3.2876 -3.9045 -0.3223 0
M  V30 110 N -2.3316 -3.4398 0.4874 0
M  V30 111 C -2.2454 -2.1225 0.7111 0
M  V30 112 C -3.0918 -1.2238 0.1023 0
M  V30 113 H -4.8887 -3.4793 -1.6603 0
M  V30 114 H -3.3379 -4.9832 -0.4393 0
M  V30 115 H -1.4650 -1.8089 1.4028 0
M  V30 116 H -3.0193 -0.1728 0.3302 0
M  V30 117 C 1.4738 0.6737 -6.1269 0
M  V30 118 C 1.7243 1.8538 -6.2187 0
M  V30 119 C 2.1532 3.1843 -6.3879 0
M  V30 120 C 2.6155 3.5978 -7.6244 0
M  V30 121 C 3.1621 4.8732 -7.8015 0
M  V30 122 C 3.2868 5.7404 -6.7449 0
M  V30 123 C 2.8199 5.3676 -5.4713 0
M  V30 124 C 2.9446 6.1998 -4.3362 0
M  V30 125 C 2.4444 5.7897 -3.1349 0
M  V30 126 N 1.7806 4.6159 -2.9962 0
M  V30 127 C 1.6743 3.7963 -4.0240 0
M  V30 128 C 2.2065 4.0940 -5.2883 0
M  V30 129 H 2.5679 2.9187 -8.4620 0
M  V30 130 H 3.5099 5.1623 -8.7816 0
M  V30 131 H 3.7427 6.7091 -6.8768 0
M  V30 132 H 3.4401 7.1528 -4.4311 0
M  V30 133 H 2.5565 6.3887 -2.2337 0
M  V30 134 H 1.1365 2.8643 -3.8669 0
M  V30 135 C 1.2776 -0.7177 -5.9926 0
M  V30 136 C 1.4627 -1.5587 -7.0947 0
M  V30 137 C 1.3495 -2.9277 -6.9371 0
M  V30 138 C 1.0605 -3.4751 -5.6985 0
M  V30 139 C 0.8667 -2.6476 -4.5895 0
M  V30 140 C 0.9669 -1.2668 -4.7502 0
M  V30 141 H 1.7011 -1.1361 -8.0586 0
M  V30 142 H 1.4991 -3.5766 -7.7866 0
M  V30 143 H 1.0214 -4.5476 -5.5929 0
M  V30 144 H 0.7819 -0.6029 -3.9210 0
M  V30 145 C 0.5795 -3.2104 -3.2666 0
M  V30 146 C -0.1600 -4.3860 -3.1012 0
M  V30 147 C -0.4418 -4.8430 -1.8301 0
M  V30 148 N -0.0432 -4.1873 -0.7363 0
M  V30 149 C 0.6968 -3.0794 -0.8689 0
M  V30 150 C 1.0346 -2.5738 -2.1038 0
M  V30 151 H -0.5351 -4.9251 -3.9558 0
M  V30 152 H -1.0089 -5.7546 -1.6657 0
M  V30 153 H 1.0126 -2.6053 0.0594 0
M  V30 154 H 1.6604 -1.6993 -2.1769 0
M  V30 END ATOM
M  V30 BEGIN BOND
M  V30 1 3 3 4
M  V30 2 1 4 5
M  V30 3 2 5 6
M  V30 4 1 6 7
M  V30 5 2 7 8
M  V30 6 1 8 9
M  V30 7 2 9 10
M  V30 8 1 10 11
M  V30 9 2 11 12
M  V30 10 1 12 13
M  V30 11 2 13 14
M  V30 12 1 14 5
M  V30 13 1 14 9
M  V30 14 1 6 15
M  V30 15 1 7 16
M  V30 16 1 8 17
M  V30 17 1 10 18
M  V30 18 1 11 19
M  V30 19 1 13 20
M  V30 20 2 21 22
M  V30 21 1 22 23
M  V30 22 2 23 24
M  V30 23 1 24 25
M  V30 24 2 25 26
M  V30 25 1 26 21
M  V30 26 1 22 27
M  V30 27 1 23 28
M  V30 28 1 24 29
M  V30 29 1 26 30
M  V30 30 2 31 32
M  V30 31 1 32 33
M  V30 32 2 33 34
M  V30 33 1 34 35
M  V30 34 2 35 36
M  V30 35 1 36 31
M  V30 36 1 32 37
M  V30 37 1 33 38
M  V30 38 1 35 39
M  V30 39 1 36 40
M  V30 40 1 3 21
M  V30 41 1 25 31
M  V30 42 3 41 42
M  V30 43 1 42 43
M  V30 44 2 43 44
M  V30 45 1 44 45
M  V30 46 2 45 46
M  V30 47 1 46 47
M  V30 48 2 47 48
M  V30 49 1 48 49
M  V30 50 2 49 50
M  V30 51 1 50 51
M  V30 52 2 51 52
M  V30 53 1 52 43
M  V30 54 1 52 47
M  V30 55 1 44 53
M  V30 56 1 45 54
M  V30 57 1 46 55
M  V30 58 1 48 56
M  V30 59 1 49 57
M  V30 60 1 51 58
M  V30 61 2 59 60
M  V30 62 1 60 61
M  V30 63 2 61 62
M  V30 64 1 62 63
M  V30 65 2 63 64
M  V30 66 1 64 59
M  V30 67 1 60 65
M  V30 68 1 61 66
M  V30 69 1 62 67
M  V30 70 1 64 68
M  V30 71 2 69 70
M  V30 72 1 70 71
M  V30 73 2 71 72
M  V30 74 1 72 73
M  V30 75 2 73 74
M  V30 76 1 74 69
M  V30 77 1 70 75
M  V30 78 1 71 76
M  V30 79 1 73 77
M  V30 80 1 74 78
M  V30 81 1 41 59
M  V30 82 1 63 69
M  V30 83 3 79 80
M  V30 84 1 80 81
M  V30 85 2 81 82
M  V30 86 1 82 83
M  V30 87 2 83 84
M  V30 88 1 84 85
M  V30 89 2 85 86
M  V30 90 1 86 87
M  V30 91 2 87 88
M  V30 92 1 88 89
M  V30 93 2 89 90
M  V30 94 1 90 81
M  V30 95 1 90 85
M  V30 96 1 82 91
M  V30 97 1 83 92
M  V30 98 1 84 93
M  V30 99 1 86 94
M  V30 100 1 87 95
M  V30 101 1 89 96
M  V30 102 2 97 98
M  V30 103 1 98 99
M  V30 104 2 99 100
M  V30 105 1 100 101
M  V30 106 2 101 102
M  V30 107 1 102 97
M  V30 108 1 98 103
M  V30 109 1 99 104
M  V30 110 1 100 105
M  V30 111 1 102 106
M  V30 112 2 107 108
M  V30 113 1 108 109
M  V30 114 2 109 110
M  V30 115 1 110 111
M  V30 116 2 111 112
M  V30 117 1 112 107
M  V30 118 1 108 113
M  V30 119 1 109 114
M  V30 120 1 111 115
M  V30 121 1 112 116
M  V30 122 1 79 97
M  V30 123 1 101 107
M  V30 124 3 117 118
M  V30 125 1 118 119
M  V30 126 2 119 120
M  V30 127 1 120 121
M  V30 128 2 121 122
M  V30 129 1 122 123
M  V30 130 2 123 124
M  V30 131 1 124 125
M  V30 132 2 125 126
M  V30 133 1 126 127
M  V30 134 2 127 128
M  V30 135 1 128 119
M  V30 136 1 128 123
M  V30 137 1 120 129
M  V30 138 1 121 130
M  V30 139 1 122 131
M  V30 140 1 124 132
M  V30 141 1 125 133
M  V30 142 1 127 134
M  V30 143 2 135 136
M  V30 144 1 136 137
M  V30 145 2 137 138
M  V30 146 1 138 139
M  V30 147 2 139 140
M  V30 148 1 140 135
M  V30 149 1 136 141
M  V30 150 1 137 142
M  V30 151 1 138 143
M  V30 152 1 140 144
M  V30 153 2 145 146
M  V30 154 1 146 147
M  V30 155 2 147 148
M  V30 156 1 148 149
M  V30 157 2 149 150
M  V30 158 1 150 145
M  V30 159 1 146 151
M  V30 160 1 147 152
M  V30 161 1 149 153
M  V30 162 1 150 154
M  V30 163 1 117 135
M  V30 164 1 139 145
M  V30 165 9 34 1
M  V30 166 9 72 1
M  V30 167 9 88 1
M  V30 168 9 126 1
M  V30 169 9 12 2
M  V30 170 9 50 2
M  V30 171 9 110 2
M  V30 172 9 148 2
M  V30 END BOND
M  V30 END CTAB
M  END

$$$$
