
     RDKit          3D

  0  0  0  0  0  0  0  0  0  0999 V3000
M  V30 BEGIN CTAB
M  V30 COUNTS 154 172 0 0 0
M  V30 BEGIN ATOM
M  V30 1 Pd 4.6797 1.9161 -0.5181 0 CHG=2
M  V30 2 Pd -4.0883 -1.1098 0.2774 0 CHG=2
M  V30 3 C -2.1607 1.3068 5.5526 0
M  V30 4 C -3.2556 0.7967 5.4839 0
M  V30 5 C -4.4895 0.1198 5.5330 0
M  V30 6 C -5.1926 0.0758 6.7236 0
M  V30 7 C -6.3596 -0.6857 6.8455 0
M  V30 8 C -6.8233 -1.4391 5.7960 0
M  V30 9 C -6.1475 -1.4160 4.5624 0
M  V30 10 C -6.5547 -2.1898 3.4522 0
M  V30 11 C -5.8727 -2.0989 2.2742 0
M  V30 12 N -4.8308 -1.2468 2.1113 0
M  V30 13 C -4.3986 -0.5348 3.1337 0
M  V30 14 C -4.9903 -0.5987 4.4051 0
M  V30 15 H -4.8250 0.6256 7.5764 0
M  V30 16 H -6.8836 -0.6937 7.7892 0
M  V30 17 H -7.7028 -2.0544 5.9042 0
M  V30 18 H -7.4017 -2.8500 3.5500 0
M  V30 19 H -6.1364 -2.7074 1.4116 0
M  V30 20 H -3.5578 0.1321 2.9586 0
M  V30 21 C -0.8468 1.8126 5.6539 0
M  V30 22 C -0.3898 2.3335 6.8689 0
M  V30 23 C 0.9228 2.7527 6.9829 0
M  V30 24 C 1.7913 2.6572 5.9087 0
M  V30 25 C 1.3480 2.1444 4.6870 0
M  V30 26 C 0.0215 1.7338 4.5670 0
M  V30 27 H -1.0605 2.3977 7.7118 0
M  V30 28 H 1.2767 3.1484 7.9229 0
M  V30 29 H 2.8213 2.9506 6.0361 0
M  V30 30 H -0.3578 1.3711 3.6252 0
M  V30 31 C 2.2564 2.0195 3.5433 0
M  V30 32 C 3.2916 2.9308 3.3104 0
M  V30 33 C 4.0802 2.7963 2.1861 0
M  V30 34 N 3.8796 1.8246 1.2913 0
M  V30 35 C 2.9208 0.9169 1.5131 0
M  V30 36 C 2.1073 0.9738 2.6221 0
M  V30 37 H 3.4626 3.7535 3.9853 0
M  V30 38 H 4.8951 3.4834 1.9771 0
M  V30 39 H 2.8259 0.1337 0.7624 0
M  V30 40 H 1.3674 0.2080 2.7900 0
M  V30 41 C -3.9934 4.9266 -0.5724 0
M  V30 42 C -5.0530 4.3462 -0.5078 0
M  V30 43 C -6.3224 3.7399 -0.5684 0
M  V30 44 C -7.4428 4.5261 -0.7693 0
M  V30 45 C -8.7044 3.9513 -0.9561 0
M  V30 46 C -8.8624 2.5881 -0.9793 0
M  V30 47 C -7.7532 1.7488 -0.7678 0
M  V30 48 C -7.8411 0.3389 -0.8080 0
M  V30 49 C -6.7322 -0.4180 -0.5653 0
M  V30 50 N -5.5407 0.1385 -0.2361 0
M  V30 51 C -5.4103 1.4508 -0.2227 0
M  V30 52 C -6.4719 2.3206 -0.5170 0
M  V30 53 H -7.3381 5.5999 -0.7983 0
M  V30 54 H -9.5564 4.5964 -1.1072 0
M  V30 55 H -9.8301 2.1475 -1.1607 0
M  V30 56 H -8.7871 -0.1256 -1.0356 0
M  V30 57 H -6.7560 -1.5040 -0.6251 0
M  V30 58 H -4.4358 1.8537 0.0440 0
M  V30 59 C -2.7572 5.5853 -0.7470 0
M  V30 60 C -2.7285 6.9595 -1.0054 0
M  V30 61 C -1.5204 7.5832 -1.2574 0
M  V30 62 C -0.3395 6.8603 -1.2623 0
M  V30 63 C -0.3511 5.4880 -0.9996 0
M  V30 64 C -1.5670 4.8611 -0.7321 0
M  V30 65 H -3.6485 7.5235 -1.0153 0
M  V30 66 H -1.4995 8.6426 -1.4633 0
M  V30 67 H 0.5840 7.3618 -1.5052 0
M  V30 68 H -1.6008 3.8119 -0.4859 0
M  V30 69 C 0.8869 4.7033 -1.0192 0
M  V30 70 C 2.1157 5.2402 -0.6216 0
M  V30 71 C 3.2402 4.4405 -0.6128 0
M  V30 72 N 3.1959 3.1508 -0.9591 0
M  V30 73 C 2.0386 2.6238 -1.3785 0
M  V30 74 C 0.8796 3.3643 -1.4333 0
M  V30 75 H 2.1894 6.2651 -0.2963 0
M  V30 76 H 4.2107 4.8265 -0.3148 0
M  V30 77 H 2.0731 1.5756 -1.6719 0
M  V30 78 H -0.0281 2.9201 -1.8084 0
M  V30 79 C 2.7531 -0.5051 -5.7913 0
M  V30 80 C 3.8452 0.0108 -5.7240 0
M  V30 81 C 5.0754 0.6943 -5.7753 0
M  V30 82 C 5.7749 0.7438 -6.9680 0
M  V30 83 C 6.9376 1.5116 -7.0922 0
M  V30 84 C 7.4004 2.2656 -6.0428 0
M  V30 85 C 6.7284 2.2371 -4.8073 0
M  V30 86 C 7.1350 3.0110 -3.6969 0
M  V30 87 C 6.4569 2.9150 -2.5171 0
M  V30 88 N 5.4195 2.0575 -2.3526 0
M  V30 89 C 4.9879 1.3448 -3.3749 0
M  V30 90 C 5.5758 1.4135 -4.6478 0
M  V30 91 H 5.4076 0.1934 -7.8205 0
M  V30 92 H 7.4585 1.5238 -8.0373 0
M  V30 93 H 8.2763 2.8857 -6.1526 0
M  V30 94 H 7.9784 3.6755 -3.7961 0
M  V30 95 H 6.7202 3.5233 -1.6544 0
M  V30 96 H 4.1511 0.6735 -3.1982 0
M  V30 97 C 1.4417 -1.0177 -5.8910 0
M  V30 98 C 0.9884 -1.5488 -7.1028 0
M  V30 99 C -0.3223 -1.9748 -7.2155 0
M  V30 100 C -1.1923 -1.8761 -6.1427 0
M  V30 101 C -0.7527 -1.3530 -4.9241 0
M  V30 102 C 0.5718 -0.9357 -4.8055 0
M  V30 103 H 1.6603 -1.6156 -7.9447 0
M  V30 104 H -0.6734 -2.3785 -8.1530 0
M  V30 105 H -2.2208 -2.1749 -6.2694 0
M  V30 106 H 0.9482 -0.5647 -3.8658 0
M  V30 107 C -1.6627 -1.2247 -3.7820 0
M  V30 108 C -2.6936 -2.1394 -3.5441 0
M  V30 109 C -3.4836 -2.0017 -2.4211 0
M  V30 110 N -3.2880 -1.0236 -1.5319 0
M  V30 111 C -2.3334 -0.1127 -1.7593 0
M  V30 112 C -1.5192 -0.1724 -2.8674 0
M  V30 113 H -2.8605 -2.9671 -4.2139 0
M  V30 114 H -4.2953 -2.6913 -2.2082 0
M  V30 115 H -2.2426 0.6756 -1.0134 0
M  V30 116 H -0.7831 0.5959 -3.0398 0
M  V30 117 C 4.5861 -4.1187 0.3577 0
M  V30 118 C 5.6455 -3.5384 0.2887 0
M  V30 119 C 6.9150 -2.9318 0.3444 0
M  V30 120 C 8.0356 -3.7169 0.5486 0
M  V30 121 C 9.2974 -3.1412 0.7305 0
M  V30 122 C 9.4555 -1.7779 0.7456 0
M  V30 123 C 8.3462 -0.9398 0.5307 0
M  V30 124 C 8.4341 0.4702 0.5631 0
M  V30 125 C 7.3250 1.2259 0.3179 0
M  V30 126 N 6.1330 0.6678 -0.0068 0
M  V30 127 C 6.0024 -0.6445 -0.0130 0
M  V30 128 C 7.0644 -1.5128 0.2847 0
M  V30 129 H 7.9308 -4.7906 0.5838 0
M  V30 130 H 10.1496 -3.7855 0.8843 0
M  V30 131 H 10.4235 -1.3363 0.9232 0
M  V30 132 H 9.3806 0.9360 0.7868 0
M  V30 133 H 7.3490 2.3122 0.3719 0
M  V30 134 H 5.0278 -1.0490 -0.2760 0
M  V30 135 C 3.3500 -4.7762 0.5372 0
M  V30 136 C 3.3216 -6.1481 0.8084 0
M  V30 137 C 2.1135 -6.7699 1.0645 0
M  V30 138 C 0.9321 -6.0476 1.0612 0
M  V30 139 C 0.9437 -4.6778 0.7858 0
M  V30 140 C 2.1594 -4.0528 0.5139 0
M  V30 141 H 4.2420 -6.7114 0.8248 0
M  V30 142 H 2.0929 -7.8273 1.2803 0
M  V30 143 H 0.0087 -6.5471 1.3075 0
M  V30 144 H 2.1932 -3.0059 0.2580 0
M  V30 145 C -0.2947 -3.8934 0.7973 0
M  V30 146 C -1.5232 -4.4339 0.4033 0
M  V30 147 C -2.6478 -3.6346 0.3874 0
M  V30 148 N -2.6042 -2.3422 0.7234 0
M  V30 149 C -1.4472 -1.8113 1.1387 0
M  V30 150 C -0.2879 -2.5509 1.2000 0
M  V30 151 H -1.5961 -5.4615 0.0865 0
M  V30 152 H -3.6181 -4.0231 0.0919 0
M  V30 153 H -1.4821 -0.7604 1.4232 0
M  V30 154 H 0.6195 -2.1034 1.5714 0
M  V30 END ATOM
M  V30 BEGIN BOND
M  V30 1 3 3 4
M  V30 2 1 4 5
M  V30 3 2 5 6
M  V30 4 1 6 7
M  V30 5 2 7 8
M  V30 6 1 8 9
M  V30 7 2 9 10
M  V30 8 1 10 11
M  V30 9 2 11 12
M  V30 10 1 12 13
M  V30 11 2 13 14
M  V30 12 1 14 5
M  V30 13 1 14 9
M  V30 14 1 6 15
M  V30 15 1 7 16
M  V30 16 1 8 17
M  V30 17 1 10 18
M  V30 18 1 11 19
M  V30 19 1 13 20
M  V30 20 2 21 22
M  V30 21 1 22 23
M  V30 22 2 23 24
M  V30 23 1 24 25
M  V30 24 2 25 26
M  V30 25 1 26 21
M  V30 26 1 22 27
M  V30 27 1 23 28
M  V30 28 1 24 29
M  V30 29 1 26 30
M  V30 30 2 31 32
M  V30 31 1 32 33
M  V30 32 2 33 34
M  V30 33 1 34 35
M  V30 34 2 35 36
M  V30 35 1 36 31
M  V30 36 1 32 37
M  V30 37 1 33 38
M  V30 38 1 35 39
M  V30 39 1 36 40
M  V30 40 1 3 21
M  V30 41 1 25 31
M  V30 42 3 41 42
M  V30 43 1 42 43
M  V30 44 2 43 44
M  V30 45 1 44 45
M  V30 46 2 45 46
M  V30 47 1 46 47
M  V30 48 2 47 48
M  V30 49 1 48 49
M  V30 50 2 49 50
M  V30 51 1 50 51
M  V30 52 2 51 52
M  V30 53 1 52 43
M  V30 54 1 52 47
M  V30 55 1 44 53
M  V30 56 1 45 54
M  V30 57 1 46 55
M  V30 58 1 48 56
M  V30 59 1 49 57
M  V30 60 1 51 58
M  V30 61 2 59 60
M  V30 62 1 60 61
M  V30 63 2 61 62
M  V30 64 1 62 63
M  V30 65 2 63 64
M  V30 66 1 64 59
M  V30 67 1 60 65
M  V30 68 1 61 66
M  V30 69 1 62 67
M  V30 70 1 64 68
M  V30 71 2 69 70
M  V30 72 1 70 71
M  V30 73 2 71 72
M  V30 74 1 72 73
M  V30 75 2 73 74
M  V30 76 1 74 69
M  V30 77 1 70 75
M  V30 78 1 71 76
M  V30 79 1 73 77
M  V30 80 1 74 78
M  V30 81 1 41 59
M  V30 82 1 63 69
M  V30 83 3 79 80
M  V30 84 1 80 81
M  V30 85 2 81 82
M  V30 86 1 82 83
M  V30 87 2 83 84
M  V30 88 1 84 85
M  V30 89 2 85 86
M  V30 90 1 86 87
M  V30 91 2 87 88
M  V30 92 1 88 89
M  V30 93 2 89 90
M  V30 94 1 90 81
M  V30 95 1 90 85
M  V30 96 1 82 91
M  V30 97 1 83 92
M  V30 98 1 84 93
M  V30 99 1 86 94
M  V30 100 1 87 95
M  V30 101 1 89 96
M  V30 102 2 97 98
M  V30 103 1 98 99
M  V30 104 2 99 100
M  V30 105 1 100 101
M  V30 106 2 101 102
M  V30 107 1 102 97
M  V30 108 1 98 103
M  V30 109 1 99 104
M  V30 110 1 100 105
M  V30 111 1 102 106
M  V30 112 2 107 108
M  V30 113 1 108 109
M  V30 114 2 109 110
M  V30 115 1 110 111
M  V30 116 2 111 112
M  V30 117 1 112 107
M  V30 118 1 108 113
M  V30 119 1 109 114
M  V30 120 1 111 115
M  V30 121 1 112 116
M  V30 122 1 79 97
M  V30 123 1 101 107
M  V30 124 3 117 118
M  V30 125 1 118 119
M  V30 126 2 119 120
M  V30 127 1 120 121
M  V30 128 2 121 122
M  V30 129 1 122 123
M  V30 130 2 123 124
M  V30 131 1 124 125
M  V30 132 2 125 126
M  V30 133 1 126 127
M  V30 134 2 127 128
M  V30 135 1 128 119
M  V30 136 1 128 123
M  V30 137 1 120 129
M  V30 138 1 121 130
M  V30 139 1 122 131
M  V30 140 1 124 132
M  V30 141 1 125 133
M  V30 142 1 127 134
M  V30 143 2 135 136
M  V30 144 1 136 137
M  V30 145 2 137 138
M  V30 146 1 138 139
M  V30 147 2 139 140
M  V30 148 1 140 135
M  V30 149 1 136 141
M  V30 150 1 137 142
M  V30 151 1 138 143
M  V30 152 1 140 144
M  V30 153 2 145 146
M  V30 154 1 146 147
M  V30 155 2 147 148
M  V30 156 1 148 149
M  V30 157 2 149 150
M  V30 158 1 150 145
M  V30 159 1 146 151
M  V30 160 1 147 152
M  V30 161 1 149 153
M  V30 162 1 150 154
M  V30 163 1 117 135
M  V30 164 1 139 145
M  V30 165 9 34 1
M  V30 166 9 72 1
M  V30 167 9 88 1
M  V30 168 9 126 1
M  V30 169 9 12 2
M  V30 170 9 50 2
M  V30 171 9 110 2
M  V30 172 9 148 2
M  V30 END BOND
M  V30 END CTAB
M  END

$$$$
