
     RDKit          3D

  0  0  0  0  0  0  0  0  0  0999 V3000
M  V30 BEGIN CTAB
M  V30 COUNTS 154 172 0 0 0
M  V30 BEGIN ATOM
M  V30 1 Pd -2.2781 -3.2784 -2.8396 0 CHG=2
M  V30 2 Pd 2.9991 2.4627 2.2455 0 CHG=2
M  V30 3 C -0.5611 -0.9515 5.8582 0
M  V30 4 C 0.1457 -0.0951 6.3384 0
M  V30 5 C 0.8389 0.9537 6.9731 0
M  V30 6 C 0.7111 1.1220 8.3403 0
M  V30 7 C 1.2849 2.2203 8.9895 0
M  V30 8 C 1.9636 3.1819 8.2832 0
M  V30 9 C 2.1287 3.0465 6.8927 0
M  V30 10 C 2.7905 4.0136 6.1029 0
M  V30 11 C 2.9431 3.8073 4.7631 0
M  V30 12 N 2.5182 2.6707 4.1582 0
M  V30 13 C 1.8646 1.7612 4.8544 0
M  V30 14 C 1.6006 1.9026 6.2258 0
M  V30 15 H 0.1459 0.4022 8.9121 0
M  V30 16 H 1.1671 2.3172 10.0580 0
M  V30 17 H 2.3731 4.0467 8.7813 0
M  V30 18 H 3.1658 4.9103 6.5696 0
M  V30 19 H 3.4145 4.5476 4.1199 0
M  V30 20 H 1.5386 0.8675 4.3276 0
M  V30 21 C -1.4552 -1.8816 5.2855 0
M  V30 22 C -2.2971 -2.6389 6.1064 0
M  V30 23 C -3.2262 -3.4887 5.5351 0
M  V30 24 C -3.3357 -3.5939 4.1588 0
M  V30 25 C -2.4979 -2.8481 3.3257 0
M  V30 26 C -1.5521 -2.0010 3.9007 0
M  V30 27 H -2.2230 -2.5501 7.1794 0
M  V30 28 H -3.8802 -4.0680 6.1692 0
M  V30 29 H -4.0974 -4.2310 3.7379 0
M  V30 30 H -0.8665 -1.4439 3.2826 0
M  V30 31 C -2.6099 -2.9328 1.8665 0
M  V30 32 C -2.9716 -4.1158 1.2140 0
M  V30 33 C -3.0055 -4.1526 -0.1650 0
M  V30 34 N -2.6862 -3.0909 -0.9108 0
M  V30 35 C -2.3758 -1.9362 -0.3085 0
M  V30 36 C -2.3405 -1.8169 1.0624 0
M  V30 37 H -3.1974 -5.0073 1.7759 0
M  V30 38 H -3.2862 -5.0531 -0.7035 0
M  V30 39 H -2.1536 -1.1004 -0.9704 0
M  V30 40 H -2.1209 -0.8644 1.5170 0
M  V30 41 C 5.4096 -3.1368 2.1770 0
M  V30 42 C 5.9929 -2.2392 2.7407 0
M  V30 43 C 6.7969 -1.2341 3.3117 0
M  V30 44 C 8.0291 -1.5692 3.8439 0
M  V30 45 C 8.9068 -0.5843 4.3092 0
M  V30 46 C 8.5850 0.7470 4.2202 0
M  V30 47 C 7.3379 1.1346 3.6967 0
M  V30 48 C 6.9561 2.4873 3.5501 0
M  V30 49 C 5.7196 2.7950 3.0621 0
M  V30 50 N 4.8116 1.8377 2.7513 0
M  V30 51 C 5.1428 0.5643 2.8414 0
M  V30 52 C 6.4090 0.1398 3.2735 0
M  V30 53 H 8.3236 -2.6067 3.8855 0
M  V30 54 H 9.8587 -0.8835 4.7208 0
M  V30 55 H 9.2792 1.5057 4.5455 0
M  V30 56 H 7.6510 3.2654 3.8225 0
M  V30 57 H 5.4076 3.8246 2.9013 0
M  V30 58 H 4.3841 -0.1695 2.5790 0
M  V30 59 C 4.7774 -4.1575 1.4346 0
M  V30 60 C 5.3563 -5.4285 1.3612 0
M  V30 61 C 4.7763 -6.3995 0.5658 0
M  V30 62 C 3.6316 -6.1248 -0.1632 0
M  V30 63 C 3.0380 -4.8619 -0.0953 0
M  V30 64 C 3.6143 -3.8866 0.7169 0
M  V30 65 H 6.2558 -5.6420 1.9178 0
M  V30 66 H 5.2272 -7.3783 0.5043 0
M  V30 67 H 3.2242 -6.8856 -0.8102 0
M  V30 68 H 3.1547 -2.9167 0.8200 0
M  V30 69 C 1.8369 -4.5474 -0.8747 0
M  V30 70 C 0.8562 -5.5055 -1.1512 0
M  V30 71 C -0.2784 -5.1410 -1.8469 0
M  V30 72 N -0.4858 -3.8868 -2.2581 0
M  V30 73 C 0.4553 -2.9602 -2.0374 0
M  V30 74 C 1.6218 -3.2532 -1.3679 0
M  V30 75 H 0.9641 -6.5200 -0.8038 0
M  V30 76 H -1.0569 -5.8606 -2.0830 0
M  V30 77 H 0.2392 -1.9637 -2.4198 0
M  V30 78 H 2.3748 -2.4932 -1.2367 0
M  V30 79 C 1.2787 0.1395 -6.4518 0
M  V30 80 C 0.5767 -0.7213 -6.9310 0
M  V30 81 C -0.1102 -1.7747 -7.5647 0
M  V30 82 C 0.0232 -1.9468 -8.9310 0
M  V30 83 C -0.5438 -3.0492 -9.5791 0
M  V30 84 C -1.2215 -4.0111 -8.8724 0
M  V30 85 C -1.3925 -3.8721 -7.4830 0
M  V30 86 C -2.0538 -4.8391 -6.6927 0
M  V30 87 C -2.2122 -4.6296 -5.3540 0
M  V30 88 N -1.7933 -3.4898 -4.7510 0
M  V30 89 C -1.1405 -2.5797 -5.4474 0
M  V30 90 C -0.8712 -2.7242 -6.8175 0
M  V30 91 H 0.5879 -1.2265 -9.5028 0
M  V30 92 H -0.4215 -3.1490 -10.6467 0
M  V30 93 H -1.6258 -4.8790 -9.3692 0
M  V30 94 H -2.4242 -5.7385 -7.1580 0
M  V30 95 H -2.6833 -5.3696 -4.7106 0
M  V30 96 H -0.8200 -1.6834 -4.9221 0
M  V30 97 C 2.1676 1.0749 -5.8799 0
M  V30 98 C 3.0016 1.8403 -6.7014 0
M  V30 99 C 3.9261 2.6957 -6.1307 0
M  V30 100 C 4.0387 2.7985 -4.7544 0
M  V30 101 C 3.2089 2.0446 -3.9208 0
M  V30 102 C 2.2676 1.1921 -4.4950 0
M  V30 103 H 2.9252 1.7534 -7.7743 0
M  V30 104 H 4.5740 3.2812 -6.7653 0
M  V30 105 H 4.7970 3.4401 -4.3343 0
M  V30 106 H 1.5882 0.6283 -3.8761 0
M  V30 107 C 3.3241 2.1268 -2.4617 0
M  V30 108 C 3.6787 3.3111 -1.8076 0
M  V30 109 C 3.7154 3.3454 -0.4286 0
M  V30 110 N 3.4052 2.2800 0.3159 0
M  V30 111 C 3.1021 1.1242 -0.2883 0
M  V30 112 C 3.0647 1.0073 -1.6592 0
M  V30 113 H 3.8969 4.2054 -2.3682 0
M  V30 114 H 3.9907 4.2469 0.1112 0
M  V30 115 H 2.8874 0.2855 0.3724 0
M  V30 116 H 2.8515 0.0542 -2.1152 0
M  V30 117 C -4.7034 2.3167 -2.7501 0
M  V30 118 C -5.2841 1.4196 -3.3175 0
M  V30 119 C -6.0854 0.4146 -3.8924 0
M  V30 120 C -7.3192 0.7484 -4.4219 0
M  V30 121 C -8.1941 -0.2370 -4.8913 0
M  V30 122 C -7.8679 -1.5676 -4.8090 0
M  V30 123 C -6.6193 -1.9538 -4.2885 0
M  V30 124 C -6.2331 -3.3058 -4.1483 0
M  V30 125 C -4.9956 -3.6121 -3.6625 0
M  V30 126 N -4.0901 -2.6536 -3.3477 0
M  V30 127 C -4.4252 -1.3808 -3.4318 0
M  V30 128 C -5.6930 -0.9582 -3.8612 0
M  V30 129 H -7.6171 1.7852 -4.4583 0
M  V30 130 H -9.1473 0.0612 -5.3006 0
M  V30 131 H -8.5600 -2.3270 -5.1374 0
M  V30 132 H -6.9259 -4.0849 -4.4240 0
M  V30 133 H -4.6804 -4.6416 -3.5066 0
M  V30 134 H -3.6689 -0.6458 -3.1665 0
M  V30 135 C -4.0735 3.3357 -2.0036 0
M  V30 136 C -4.6589 4.6032 -1.9194 0
M  V30 137 C -4.0805 5.5721 -1.1203 0
M  V30 138 C -2.9312 5.2989 -0.3980 0
M  V30 139 C -2.3313 4.0395 -0.4767 0
M  V30 140 C -2.9058 3.0665 -1.2927 0
M  V30 141 H -5.5621 4.8154 -2.4708 0
M  V30 142 H -4.5364 6.5480 -1.0506 0
M  V30 143 H -2.5249 6.0574 0.2521 0
M  V30 144 H -2.4416 2.0997 -1.4042 0
M  V30 145 C -1.1256 3.7262 0.2961 0
M  V30 146 C -0.1484 4.6872 0.5751 0
M  V30 147 C 0.9901 4.3238 1.2650 0
M  V30 148 N 1.2045 3.0682 1.6681 0
M  V30 149 C 0.2672 2.1385 1.4447 0
M  V30 150 C -0.9027 2.4300 0.7806 0
M  V30 151 H -0.2623 5.7032 0.2340 0
M  V30 152 H 1.7662 5.0455 1.5027 0
M  V30 153 H 0.4894 1.1405 1.8202 0
M  V30 154 H -1.6525 1.6674 0.6467 0
M  V30 END ATOM
M  V30 BEGIN BOND
M  V30 1 3 3 4
M  V30 2 1 4 5
M  V30 3 2 5 6
M  V30 4 1 6 7
M  V30 5 2 7 8
M  V30 6 1 8 9
M  V30 7 2 9 10
M  V30 8 1 10 11
M  V30 9 2 11 12
M  V30 10 1 12 13
M  V30 11 2 13 14
M  V30 12 1 14 5
M  V30 13 1 14 9
M  V30 14 1 6 15
M  V30 15 1 7 16
M  V30 16 1 8 17
M  V30 17 1 10 18
M  V30 18 1 11 19
M  V30 19 1 13 20
M  V30 20 2 21 22
M  V30 21 1 22 23
M  V30 22 2 23 24
M  V30 23 1 24 25
M  V30 24 2 25 26
M  V30 25 1 26 21
M  V30 26 1 22 27
M  V30 27 1 23 28
M  V30 28 1 24 29
M  V30 29 1 26 30
M  V30 30 2 31 32
M  V30 31 1 32 33
M  V30 32 2 33 34
M  V30 33 1 34 35
M  V30 34 2 35 36
M  V30 35 1 36 31
M  V30 36 1 32 37
M  V30 37 1 33 38
M  V30 38 1 35 39
M  V30 39 1 36 40
M  V30 40 1 3 21
M  V30 41 1 25 31
M  V30 42 3 41 42
M  V30 43 1 42 43
M  V30 44 2 43 44
M  V30 45 1 44 45
M  V30 46 2 45 46
M  V30 47 1 46 47
M  V30 48 2 47 48
M  V30 49 1 48 49
M  V30 50 2 49 50
M  V30 51 1 50 51
M  V30 52 2 51 52
M  V30 53 1 52 43
M  V30 54 1 52 47
M  V30 55 1 44 53
M  V30 56 1 45 54
M  V30 57 1 46 55
M  V30 58 1 48 56
M  V30 59 1 49 57
M  V30 60 1 51 58
M  V30 61 2 59 60
M  V30 62 1 60 61
M  V30 63 2 61 62
M  V30 64 1 62 63
M  V30 65 2 63 64
M  V30 66 1 64 59
M  V30 67 1 60 65
M  V30 68 1 61 66
M  V30 69 1 62 67
M  V30 70 1 64 68
M  V30 71 2 69 70
M  V30 72 1 70 71
M  V30 73 2 71 72
M  V30 74 1 72 73
M  V30 75 2 73 74
M  V30 76 1 74 69
M  V30 77 1 70 75
M  V30 78 1 71 76
M  V30 79 1 73 77
M  V30 80 1 74 78
M  V30 81 1 41 59
M  V30 82 1 63 69
M  V30 83 3 79 80
M  V30 84 1 80 81
M  V30 85 2 81 82
M  V30 86 1 82 83
M  V30 87 2 83 84
M  V30 88 1 84 85
M  V30 89 2 85 86
M  V30 90 1 86 87
M  V30 91 2 87 88
M  V30 92 1 88 89
M  V30 93 2 89 90
M  V30 94 1 90 81
M  V30 95 1 90 85
M  V30 96 1 82 91
M  V30 97 1 83 92
M  V30 98 1 84 93
M  V30 99 1 86 94
M  V30 100 1 87 95
M  V30 101 1 89 96
M  V30 102 2 97 98
M  V30 103 1 98 99
M  V30 104 2 99 100
M  V30 105 1 100 101
M  V30 106 2 101 102
M  V30 107 1 102 97
M  V30 108 1 98 103
M  V30 109 1 99 104
M  V30 110 1 100 105
M  V30 111 1 102 106
M  V30 112 2 107 108
M  V30 113 1 108 109
M  V30 114 2 109 110
M  V30 115 1 110 111
M  V30 116 2 111 112
M  V30 117 1 112 107
M  V30 118 1 108 113
M  V30 119 1 109 114
M  V30 120 1 111 115
M  V30 121 1 112 116
M  V30 122 1 79 97
M  V30 123 1 101 107
M  V30 124 3 117 118
M  V30 125 1 118 119
M  V30 126 2 119 120
M  V30 127 1 120 121
M  V30 128 2 121 122
M  V30 129 1 122 123
M  V30 130 2 123 124
M  V30 131 1 124 125
M  V30 132 2 125 126
M  V30 133 1 126 127
M  V30 134 2 127 128
M  V30 135 1 128 119
M  V30 136 1 128 123
M  V30 137 1 120 129
M  V30 138 1 121 130
M  V30 139 1 122 131
M  V30 140 1 124 132
M  V30 141 1 125 133
M  V30 142 1 127 134
M  V30 143 2 135 136
M  V30 144 1 136 137
M  V30 145 2 137 138
M  V30 146 1 138 139
M  V30 147 2 139 140
M  V30 148 1 140 135
M  V30 149 1 136 141
M  V30 150 1 137 142
M  V30 151 1 138 143
M  V30 152 1 140 144
M  V30 153 2 145 146
M  V30 154 1 146 147
M  V30 155 2 147 148
M  V30 156 1 148 149
M  V30 157 2 149 150
M  V30 158 1 150 145
M  V30 159 1 146 151
M  V30 160 1 147 152
M  V30 161 1 149 153
M  V30 162 1 150 154
M  V30 163 1 117 135
M  V30 164 1 139 145
M  V30 165 9 34 1
M  V30 166 9 72 1
M  V30 167 9 88 1
M  V30 168 9 126 1
M  V30 169 9 12 2
M  V30 170 9 50 2
M  V30 171 9 110 2
M  V30 172 9 148 2
M  V30 END BOND
M  V30 END CTAB
M  END

$$$$
