
     RDKit          3D

  0  0  0  0  0  0  0  0  0  0999 V3000
M  V30 BEGIN CTAB
M  V30 COUNTS 154 172 0 0 0
M  V30 BEGIN ATOM
M  V30 1 Pd 4.2011 1.8016 0.2872 0 CHG=2
M  V30 2 Pd -4.3391 -1.7763 -0.6780 0 CHG=2
M  V30 3 C -3.5635 0.4448 4.9654 0
M  V30 4 C -4.5906 -0.1241 4.6739 0
M  V30 5 C -5.7640 -0.8743 4.4649 0
M  V30 6 C -6.6654 -1.0275 5.5030 0
M  V30 7 C -7.7805 -1.8622 5.3740 0
M  V30 8 C -7.9949 -2.5805 4.2242 0
M  V30 9 C -7.1110 -2.4473 3.1379 0
M  V30 10 C -7.2576 -3.1791 1.9378 0
M  V30 11 C -6.3823 -2.9811 0.9104 0
M  V30 12 N -5.3888 -2.0611 0.9803 0
M  V30 13 C -5.1976 -1.3844 2.0959 0
M  V30 14 C -6.0029 -1.5555 3.2328 0
M  V30 15 H -6.4960 -0.5065 6.4329 0
M  V30 16 H -8.4641 -1.9548 6.2042 0
M  V30 17 H -8.8353 -3.2517 4.1412 0
M  V30 18 H -8.0611 -3.8925 1.8486 0
M  V30 19 H -6.4439 -3.5539 -0.0126 0
M  V30 20 H -4.3865 -0.6603 2.1085 0
M  V30 21 C -2.3270 1.0206 5.3290 0
M  V30 22 C -2.1332 1.4974 6.6295 0
M  V30 23 C -0.8944 1.9860 7.0014 0
M  V30 24 C 0.1579 2.0033 6.1016 0
M  V30 25 C -0.0218 1.5358 4.7973 0
M  V30 26 C -1.2738 1.0552 4.4174 0
M  V30 27 H -2.9477 1.4737 7.3371 0
M  V30 28 H -0.7436 2.3477 8.0073 0
M  V30 29 H 1.1256 2.3492 6.4290 0
M  V30 30 H -1.4514 0.7252 3.4065 0
M  V30 31 C 1.0842 1.5301 3.8353 0
M  V30 32 C 2.0797 2.5126 3.8379 0
M  V30 33 C 3.0653 2.4893 2.8725 0
M  V30 34 N 3.0962 1.5601 1.9129 0
M  V30 35 C 2.1774 0.5863 1.9136 0
M  V30 36 C 1.1754 0.5317 2.8559 0
M  V30 37 H 2.0697 3.3042 4.5693 0
M  V30 38 H 3.8556 3.2340 2.8479 0
M  V30 39 H 2.2731 -0.1571 1.1235 0
M  V30 40 H 0.4714 -0.2847 2.8503 0
M  V30 41 C -4.5053 4.2939 -1.2213 0
M  V30 42 C -5.5170 3.6493 -1.3787 0
M  V30 43 C -6.7102 2.9737 -1.6986 0
M  V30 44 C -7.8271 3.7027 -2.0659 0
M  V30 45 C -8.9921 3.0661 -2.5069 0
M  V30 46 C -9.0498 1.6995 -2.6205 0
M  V30 47 C -7.9422 0.9163 -2.2474 0
M  V30 48 C -7.9249 -0.4917 -2.3669 0
M  V30 49 C -6.8287 -1.1945 -1.9594 0
M  V30 50 N -5.7570 -0.5884 -1.3922 0
M  V30 51 C -5.7211 0.7263 -1.2956 0
M  V30 52 C -6.7692 1.5474 -1.7400 0
M  V30 53 H -7.7926 4.7807 -2.0264 0
M  V30 54 H -9.8451 3.6674 -2.7823 0
M  V30 55 H -9.9366 1.2137 -2.9962 0
M  V30 56 H -8.7804 -0.9974 -2.7850 0
M  V30 57 H -6.7671 -2.2748 -2.0717 0
M  V30 58 H -4.8405 1.1701 -0.8366 0
M  V30 59 C -3.3058 5.0332 -1.1361 0
M  V30 60 C -3.3250 6.4192 -1.3222 0
M  V30 61 C -2.1368 7.1263 -1.3196 0
M  V30 62 C -0.9277 6.4757 -1.1405 0
M  V30 63 C -0.8927 5.0925 -0.9469 0
M  V30 64 C -2.0911 4.3807 -0.9358 0
M  V30 65 H -4.2645 6.9276 -1.4752 0
M  V30 66 H -2.1516 8.1951 -1.4700 0
M  V30 67 H -0.0121 7.0439 -1.1868 0
M  V30 68 H -2.0970 3.3190 -0.7479 0
M  V30 69 C 0.3793 4.3845 -0.7746 0
M  V30 70 C 1.4767 4.9693 -0.1343 0
M  V30 71 C 2.6331 4.2380 0.0445 0
M  V30 72 N 2.7402 2.9699 -0.3622 0
M  V30 73 C 1.7162 2.4004 -1.0103 0
M  V30 74 C 0.5382 3.0732 -1.2433 0
M  V30 75 H 1.4203 5.9765 0.2452 0
M  V30 76 H 3.5053 4.6629 0.5327 0
M  V30 77 H 1.8746 1.3744 -1.3396 0
M  V30 78 H -0.2544 2.5983 -1.7983 0
M  V30 79 C 3.4265 -0.4242 -5.3544 0
M  V30 80 C 4.4508 0.1506 -5.0645 0
M  V30 81 C 5.6204 0.9072 -4.8580 0
M  V30 82 C 6.5183 1.0658 -5.8986 0
M  V30 83 C 7.6292 1.9066 -5.7724 0
M  V30 84 C 7.8426 2.6255 -4.6228 0
M  V30 85 C 6.9625 2.4870 -3.5341 0
M  V30 86 C 7.1084 3.2189 -2.3341 0
M  V30 87 C 6.2370 3.0159 -1.3044 0
M  V30 88 N 5.2481 2.0908 -1.3721 0
M  V30 89 C 5.0575 1.4134 -2.4875 0
M  V30 90 C 5.8591 1.5892 -3.6264 0
M  V30 91 H 6.3492 0.5442 -6.8281 0
M  V30 92 H 8.3098 2.0034 -6.6043 0
M  V30 93 H 8.6795 3.3013 -4.5418 0
M  V30 94 H 7.9085 3.9365 -2.2466 0
M  V30 95 H 6.2983 3.5885 -0.3813 0
M  V30 96 H 4.2504 0.6849 -2.4981 0
M  V30 97 C 2.1927 -1.0066 -5.7161 0
M  V30 98 C 2.0026 -1.4936 -7.0134 0
M  V30 99 C 0.7659 -1.9889 -7.3839 0
M  V30 100 C -0.2878 -2.0030 -6.4857 0
M  V30 101 C -0.1119 -1.5253 -5.1847 0
M  V30 102 C 1.1379 -1.0381 -4.8062 0
M  V30 103 H 2.8181 -1.4724 -7.7199 0
M  V30 104 H 0.6180 -2.3584 -8.3873 0
M  V30 105 H -1.2538 -2.3542 -6.8123 0
M  V30 106 H 1.3125 -0.6997 -3.7975 0
M  V30 107 C -1.2194 -1.5163 -4.2244 0
M  V30 108 C -2.2114 -2.5022 -4.2214 0
M  V30 109 C -3.1984 -2.4755 -3.2574 0
M  V30 110 N -3.2335 -1.5400 -2.3039 0
M  V30 111 C -2.3181 -0.5629 -2.3107 0
M  V30 112 C -1.3153 -0.5112 -3.2522 0
M  V30 113 H -2.1979 -3.2987 -4.9473 0
M  V30 114 H -3.9861 -3.2228 -3.2285 0
M  V30 115 H -2.4173 0.1856 -1.5258 0
M  V30 116 H -0.6145 0.3077 -3.2515 0
M  V30 117 C 4.3639 -4.2683 0.8562 0
M  V30 118 C 5.3762 -3.6236 1.0092 0
M  V30 119 C 6.5704 -2.9474 1.3244 0
M  V30 120 C 7.6868 -3.6755 1.6950 0
M  V30 121 C 8.8528 -3.0377 2.1313 0
M  V30 122 C 8.9120 -1.6705 2.2369 0
M  V30 123 C 7.8050 -0.8884 1.8604 0
M  V30 124 C 7.7891 0.5202 1.9723 0
M  V30 125 C 6.6933 1.2220 1.5622 0
M  V30 126 N 5.6203 0.6140 0.9994 0
M  V30 127 C 5.5830 -0.7013 0.9097 0
M  V30 128 C 6.6308 -1.5209 1.3576 0
M  V30 129 H 7.6510 -4.7537 1.6617 0
M  V30 130 H 9.7054 -3.6384 2.4095 0
M  V30 131 H 9.7997 -1.1836 2.6091 0
M  V30 132 H 8.6457 1.0275 2.3868 0
M  V30 133 H 6.6329 2.3029 1.6689 0
M  V30 134 H 4.7017 -1.1468 0.4543 0
M  V30 135 C 3.1636 -5.0067 0.7759 0
M  V30 136 C 3.1806 -6.3911 0.9747 0
M  V30 137 C 1.9914 -7.0966 0.9763 0
M  V30 138 C 0.7834 -6.4462 0.7890 0
M  V30 139 C 0.7508 -5.0647 0.5829 0
M  V30 140 C 1.9500 -4.3546 0.5673 0
M  V30 141 H 4.1192 -6.8993 1.1342 0
M  V30 142 H 2.0046 -8.1640 1.1364 0
M  V30 143 H -0.1329 -7.0125 0.8388 0
M  V30 144 H 1.9578 -3.2947 0.3697 0
M  V30 145 C -0.5201 -4.3565 0.4024 0
M  V30 146 C -1.6175 -4.9451 -0.2344 0
M  V30 147 C -2.7728 -4.2139 -0.4202 0
M  V30 148 N -2.8789 -2.9425 -0.0236 0
M  V30 149 C -1.8548 -2.3688 0.6206 0
M  V30 150 C -0.6777 -3.0411 0.8600 0
M  V30 151 H -1.5617 -5.9555 -0.6056 0
M  V30 152 H -3.6451 -4.6415 -0.9060 0
M  V30 153 H -2.0121 -1.3398 0.9412 0
M  V30 154 H 0.1152 -2.5628 1.4115 0
M  V30 END ATOM
M  V30 BEGIN BOND
M  V30 1 3 3 4
M  V30 2 1 4 5
M  V30 3 2 5 6
M  V30 4 1 6 7
M  V30 5 2 7 8
M  V30 6 1 8 9
M  V30 7 2 9 10
M  V30 8 1 10 11
M  V30 9 2 11 12
M  V30 10 1 12 13
M  V30 11 2 13 14
M  V30 12 1 14 5
M  V30 13 1 14 9
M  V30 14 1 6 15
M  V30 15 1 7 16
M  V30 16 1 8 17
M  V30 17 1 10 18
M  V30 18 1 11 19
M  V30 19 1 13 20
M  V30 20 2 21 22
M  V30 21 1 22 23
M  V30 22 2 23 24
M  V30 23 1 24 25
M  V30 24 2 25 26
M  V30 25 1 26 21
M  V30 26 1 22 27
M  V30 27 1 23 28
M  V30 28 1 24 29
M  V30 29 1 26 30
M  V30 30 2 31 32
M  V30 31 1 32 33
M  V30 32 2 33 34
M  V30 33 1 34 35
M  V30 34 2 35 36
M  V30 35 1 36 31
M  V30 36 1 32 37
M  V30 37 1 33 38
M  V30 38 1 35 39
M  V30 39 1 36 40
M  V30 40 1 3 21
M  V30 41 1 25 31
M  V30 42 3 41 42
M  V30 43 1 42 43
M  V30 44 2 43 44
M  V30 45 1 44 45
M  V30 46 2 45 46
M  V30 47 1 46 47
M  V30 48 2 47 48
M  V30 49 1 48 49
M  V30 50 2 49 50
M  V30 51 1 50 51
M  V30 52 2 51 52
M  V30 53 1 52 43
M  V30 54 1 52 47
M  V30 55 1 44 53
M  V30 56 1 45 54
M  V30 57 1 46 55
M  V30 58 1 48 56
M  V30 59 1 49 57
M  V30 60 1 51 58
M  V30 61 2 59 60
M  V30 62 1 60 61
M  V30 63 2 61 62
M  V30 64 1 62 63
M  V30 65 2 63 64
M  V30 66 1 64 59
M  V30 67 1 60 65
M  V30 68 1 61 66
M  V30 69 1 62 67
M  V30 70 1 64 68
M  V30 71 2 69 70
M  V30 72 1 70 71
M  V30 73 2 71 72
M  V30 74 1 72 73
M  V30 75 2 73 74
M  V30 76 1 74 69
M  V30 77 1 70 75
M  V30 78 1 71 76
M  V30 79 1 73 77
M  V30 80 1 74 78
M  V30 81 1 41 59
M  V30 82 1 63 69
M  V30 83 3 79 80
M  V30 84 1 80 81
M  V30 85 2 81 82
M  V30 86 1 82 83
M  V30 87 2 83 84
M  V30 88 1 84 85
M  V30 89 2 85 86
M  V30 90 1 86 87
M  V30 91 2 87 88
M  V30 92 1 88 89
M  V30 93 2 89 90
M  V30 94 1 90 81
M  V30 95 1 90 85
M  V30 96 1 82 91
M  V30 97 1 83 92
M  V30 98 1 84 93
M  V30 99 1 86 94
M  V30 100 1 87 95
M  V30 101 1 89 96
M  V30 102 2 97 98
M  V30 103 1 98 99
M  V30 104 2 99 100
M  V30 105 1 100 101
M  V30 106 2 101 102
M  V30 107 1 102 97
M  V30 108 1 98 103
M  V30 109 1 99 104
M  V30 110 1 100 105
M  V30 111 1 102 106
M  V30 112 2 107 108
M  V30 113 1 108 109
M  V30 114 2 109 110
M  V30 115 1 110 111
M  V30 116 2 111 112
M  V30 117 1 112 107
M  V30 118 1 108 113
M  V30 119 1 109 114
M  V30 120 1 111 115
M  V30 121 1 112 116
M  V30 122 1 79 97
M  V30 123 1 101 107
M  V30 124 3 117 118
M  V30 125 1 118 119
M  V30 126 2 119 120
M  V30 127 1 120 121
M  V30 128 2 121 122
M  V30 129 1 122 123
M  V30 130 2 123 124
M  V30 131 1 124 125
M  V30 132 2 125 126
M  V30 133 1 126 127
M  V30 134 2 127 128
M  V30 135 1 128 119
M  V30 136 1 128 123
M  V30 137 1 120 129
M  V30 138 1 121 130
M  V30 139 1 122 131
M  V30 140 1 124 132
M  V30 141 1 125 133
M  V30 142 1 127 134
M  V30 143 2 135 136
M  V30 144 1 136 137
M  V30 145 2 137 138
M  V30 146 1 138 139
M  V30 147 2 139 140
M  V30 148 1 140 135
M  V30 149 1 136 141
M  V30 150 1 137 142
M  V30 151 1 138 143
M  V30 152 1 140 144
M  V30 153 2 145 146
M  V30 154 1 146 147
M  V30 155 2 147 148
M  V30 156 1 148 149
M  V30 157 2 149 150
M  V30 158 1 150 145
M  V30 159 1 146 151
M  V30 160 1 147 152
M  V30 161 1 149 153
M  V30 162 1 150 154
M  V30 163 1 117 135
M  V30 164 1 139 145
M  V30 165 9 34 1
M  V30 166 9 72 1
M  V30 167 9 88 1
M  V30 168 9 126 1
M  V30 169 9 12 2
M  V30 170 9 50 2
M  V30 171 9 110 2
M  V30 172 9 148 2
M  V30 END BOND
M  V30 END CTAB
M  END

$$$$
