
     RDKit          3D

  0  0  0  0  0  0  0  0  0  0999 V3000
M  V30 BEGIN CTAB
M  V30 COUNTS 154 172 0 0 0
M  V30 BEGIN ATOM
M  V30 1 Pd -4.3781 -1.0670 0.8487 0 CHG=2
M  V30 2 Pd 4.6743 0.5422 -0.6116 0 CHG=2
M  V30 3 C 3.2267 1.5576 5.2413 0
M  V30 4 C 4.3481 1.7820 4.8467 0
M  V30 5 C 5.6386 2.1865 4.4540 0
M  V30 6 C 6.4927 2.7359 5.3934 0
M  V30 7 C 7.7352 3.2595 5.0209 0
M  V30 8 C 8.1293 3.2741 3.7061 0
M  V30 9 C 7.2984 2.7157 2.7178 0
M  V30 10 C 7.6308 2.7244 1.3443 0
M  V30 11 C 6.7944 2.1391 0.4394 0
M  V30 12 N 5.6610 1.4987 0.8183 0
M  V30 13 C 5.2985 1.4999 2.0863 0
M  V30 14 C 6.0555 2.1251 3.0896 0
M  V30 15 H 6.1878 2.7750 6.4279 0
M  V30 16 H 8.3767 3.6775 5.7818 0
M  V30 17 H 9.0718 3.7121 3.4172 0
M  V30 18 H 8.5444 3.1997 1.0245 0
M  V30 19 H 7.0014 2.1600 -0.6286 0
M  V30 20 H 4.3802 0.9779 2.3442 0
M  V30 21 C 1.8939 1.3874 5.6741 0
M  V30 22 C 1.5512 1.6532 7.0038 0
M  V30 23 C 0.2299 1.5622 7.4010 0
M  V30 24 C -0.7583 1.2160 6.4950 0
M  V30 25 C -0.4308 0.9419 5.1647 0
M  V30 26 C 0.9025 1.0206 4.7663 0
M  V30 27 H 2.3171 1.9356 7.7097 0
M  V30 28 H -0.0348 1.7740 8.4259 0
M  V30 29 H -1.7866 1.1942 6.8197 0
M  V30 30 H 1.1888 0.7761 3.7561 0
M  V30 31 C -1.4647 0.5904 4.1868 0
M  V30 32 C -2.6064 -0.1372 4.5380 0
M  V30 33 C -3.5187 -0.4890 3.5643 0
M  V30 34 N -3.3423 -0.1702 2.2788 0
M  V30 35 C -2.2776 0.5603 1.9248 0
M  V30 36 C -1.3352 0.9655 2.8426 0
M  V30 37 H -2.7679 -0.4501 5.5566 0
M  V30 38 H -4.4178 -1.0497 3.8028 0
M  V30 39 H -2.2051 0.8122 0.8677 0
M  V30 40 H -0.5076 1.5824 2.5318 0
M  V30 41 C 3.8723 -4.9543 1.9014 0
M  V30 42 C 4.9833 -4.5961 1.5836 0
M  V30 43 C 6.2874 -4.3134 1.1342 0
M  V30 44 C 7.2885 -5.2502 1.3188 0
M  V30 45 C 8.5652 -5.0586 0.7801 0
M  V30 46 C 8.8528 -3.9503 0.0232 0
M  V30 47 C 7.8695 -2.9652 -0.1816 0
M  V30 48 C 8.0903 -1.8159 -0.9737 0
M  V30 49 C 7.1032 -0.8837 -1.1081 0
M  V30 50 N 5.9161 -0.9965 -0.4632 0
M  V30 51 C 5.6595 -2.0713 0.2567 0
M  V30 52 C 6.5820 -3.1179 0.4106 0
M  V30 53 H 7.0753 -6.1508 1.8740 0
M  V30 54 H 9.3221 -5.8098 0.9473 0
M  V30 55 H 9.8271 -3.8235 -0.4219 0
M  V30 56 H 9.0395 -1.6897 -1.4692 0
M  V30 57 H 7.2261 -0.0067 -1.7399 0
M  V30 58 H 4.6934 -2.1211 0.7540 0
M  V30 59 C 2.5648 -5.4086 2.1785 0
M  V30 60 C 2.3667 -6.6926 2.6963 0
M  V30 61 C 1.0803 -7.1621 2.8878 0
M  V30 62 C -0.0137 -6.3764 2.5669 0
M  V30 63 C 0.1680 -5.0892 2.0549 0
M  V30 64 C 1.4644 -4.6100 1.8743 0
M  V30 65 H 3.2172 -7.3126 2.9351 0
M  V30 66 H 0.9280 -8.1557 3.2812 0
M  V30 67 H -1.0061 -6.7824 2.6842 0
M  V30 68 H 1.6338 -3.6060 1.5195 0
M  V30 69 C -0.9782 -4.2505 1.6919 0
M  V30 70 C -2.1912 -4.3055 2.3862 0
M  V30 71 C -3.2201 -3.4568 2.0326 0
M  V30 72 N -3.0944 -2.5612 1.0490 0
M  V30 73 C -1.9558 -2.5149 0.3459 0
M  V30 74 C -0.8930 -3.3432 0.6271 0
M  V30 75 H -2.3225 -4.9851 3.2122 0
M  V30 76 H -4.1765 -3.4766 2.5471 0
M  V30 77 H -1.9248 -1.7823 -0.4594 0
M  V30 78 H -0.0030 -3.3049 0.0202 0
M  V30 79 C -2.9307 -2.0773 -5.0050 0
M  V30 80 C -4.0502 -2.3078 -4.6085 0
M  V30 81 C -5.3379 -2.7195 -4.2144 0
M  V30 82 C -6.1894 -3.2751 -5.1528 0
M  V30 83 C -7.4285 -3.8060 -4.7792 0
M  V30 84 C -7.8218 -3.8213 -3.4642 0
M  V30 85 C -6.9939 -3.2568 -2.4769 0
M  V30 86 C -7.3256 -3.2656 -1.1033 0
M  V30 87 C -6.4923 -2.6743 -0.1994 0
M  V30 88 N -5.3627 -2.0280 -0.5795 0
M  V30 89 C -5.0007 -2.0285 -1.8477 0
M  V30 90 C -5.7546 -2.6591 -2.8500 0
M  V30 91 H -5.8846 -3.3136 -6.1874 0
M  V30 92 H -8.0676 -4.2287 -5.5392 0
M  V30 93 H -8.7614 -4.2646 -3.1742 0
M  V30 94 H -8.2363 -3.7457 -0.7825 0
M  V30 95 H -6.6989 -2.6952 0.8686 0
M  V30 96 H -4.0857 -1.5012 -2.1064 0
M  V30 97 C -1.5996 -1.9002 -5.4398 0
M  V30 98 C -1.2591 -2.1552 -6.7721 0
M  V30 99 C 0.0611 -2.0575 -7.1717 0
M  V30 100 C 1.0504 -1.7150 -6.2653 0
M  V30 101 C 0.7251 -1.4518 -4.9324 0
M  V30 102 C -0.6071 -1.5370 -4.5316 0
M  V30 103 H -2.0257 -2.4347 -7.4784 0
M  V30 104 H 0.3242 -2.2610 -8.1986 0
M  V30 105 H 2.0778 -1.6880 -6.5921 0
M  V30 106 H -0.8917 -1.3011 -3.5188 0
M  V30 107 C 1.7600 -1.1041 -3.9541 0
M  V30 108 C 2.8986 -0.3705 -4.3025 0
M  V30 109 C 3.8117 -0.0222 -3.3282 0
M  V30 110 N 3.6387 -0.3501 -2.0444 0
M  V30 111 C 2.5772 -1.0868 -1.6936 0
M  V30 112 C 1.6345 -1.4890 -2.6123 0
M  V30 113 H 3.0571 -0.0501 -5.3193 0
M  V30 114 H 4.7085 0.5432 -3.5647 0
M  V30 115 H 2.5076 -1.3461 -0.6382 0
M  V30 116 H 0.8098 -2.1110 -2.3041 0
M  V30 117 C -3.5741 4.4419 -1.6414 0
M  V30 118 C -4.6855 4.0814 -1.3275 0
M  V30 119 C -5.9904 3.7959 -0.8819 0
M  V30 120 C -6.9913 4.7336 -1.0632 0
M  V30 121 C -8.2690 4.5387 -0.5281 0
M  V30 122 C -8.5577 3.4262 0.2220 0
M  V30 123 C -7.5746 2.4402 0.4232 0
M  V30 124 C -7.7965 1.2868 1.2088 0
M  V30 125 C -6.8094 0.3542 1.3405 0
M  V30 126 N -5.6211 0.4707 0.6986 0
M  V30 127 C -5.3633 1.5492 -0.0153 0
M  V30 128 C -6.2859 2.5964 -0.1656 0
M  V30 129 H -6.7772 5.6374 -1.6131 0
M  V30 130 H -9.0257 5.2906 -0.6926 0
M  V30 131 H -9.5329 3.2966 0.6645 0
M  V30 132 H -8.7468 1.1575 1.7019 0
M  V30 133 H -6.9334 -0.5260 1.9676 0
M  V30 134 H -4.3965 1.6022 -0.5103 0
M  V30 135 C -2.2662 4.8978 -1.9138 0
M  V30 136 C -2.0670 6.1865 -2.4195 0
M  V30 137 C -0.7802 6.6566 -2.6065 0
M  V30 138 C 0.3133 5.8670 -2.2930 0
M  V30 139 C 0.1303 4.5753 -1.7929 0
M  V30 140 C -1.1664 4.0954 -1.6170 0
M  V30 141 H -2.9170 6.8094 -2.6525 0
M  V30 142 H -0.6270 7.6537 -2.9905 0
M  V30 143 H 1.3059 6.2731 -2.4062 0
M  V30 144 H -1.3369 3.0884 -1.2717 0
M  V30 145 C 1.2758 3.7325 -1.4370 0
M  V30 146 C 2.4892 3.7925 -2.1301 0
M  V30 147 C 3.5175 2.9404 -1.7826 0
M  V30 148 N 3.3907 2.0371 -0.8064 0
M  V30 149 C 2.2516 1.9853 -0.1047 0
M  V30 150 C 1.1892 2.8162 -0.3799 0
M  V30 151 H 2.6212 4.4790 -2.9505 0
M  V30 152 H 4.4742 2.9638 -2.2964 0
M  V30 153 H 2.2194 1.2459 0.6944 0
M  V30 154 H 0.2986 2.7733 0.2256 0
M  V30 END ATOM
M  V30 BEGIN BOND
M  V30 1 3 3 4
M  V30 2 1 4 5
M  V30 3 2 5 6
M  V30 4 1 6 7
M  V30 5 2 7 8
M  V30 6 1 8 9
M  V30 7 2 9 10
M  V30 8 1 10 11
M  V30 9 2 11 12
M  V30 10 1 12 13
M  V30 11 2 13 14
M  V30 12 1 14 5
M  V30 13 1 14 9
M  V30 14 1 6 15
M  V30 15 1 7 16
M  V30 16 1 8 17
M  V30 17 1 10 18
M  V30 18 1 11 19
M  V30 19 1 13 20
M  V30 20 2 21 22
M  V30 21 1 22 23
M  V30 22 2 23 24
M  V30 23 1 24 25
M  V30 24 2 25 26
M  V30 25 1 26 21
M  V30 26 1 22 27
M  V30 27 1 23 28
M  V30 28 1 24 29
M  V30 29 1 26 30
M  V30 30 2 31 32
M  V30 31 1 32 33
M  V30 32 2 33 34
M  V30 33 1 34 35
M  V30 34 2 35 36
M  V30 35 1 36 31
M  V30 36 1 32 37
M  V30 37 1 33 38
M  V30 38 1 35 39
M  V30 39 1 36 40
M  V30 40 1 3 21
M  V30 41 1 25 31
M  V30 42 3 41 42
M  V30 43 1 42 43
M  V30 44 2 43 44
M  V30 45 1 44 45
M  V30 46 2 45 46
M  V30 47 1 46 47
M  V30 48 2 47 48
M  V30 49 1 48 49
M  V30 50 2 49 50
M  V30 51 1 50 51
M  V30 52 2 51 52
M  V30 53 1 52 43
M  V30 54 1 52 47
M  V30 55 1 44 53
M  V30 56 1 45 54
M  V30 57 1 46 55
M  V30 58 1 48 56
M  V30 59 1 49 57
M  V30 60 1 51 58
M  V30 61 2 59 60
M  V30 62 1 60 61
M  V30 63 2 61 62
M  V30 64 1 62 63
M  V30 65 2 63 64
M  V30 66 1 64 59
M  V30 67 1 60 65
M  V30 68 1 61 66
M  V30 69 1 62 67
M  V30 70 1 64 68
M  V30 71 2 69 70
M  V30 72 1 70 71
M  V30 73 2 71 72
M  V30 74 1 72 73
M  V30 75 2 73 74
M  V30 76 1 74 69
M  V30 77 1 70 75
M  V30 78 1 71 76
M  V30 79 1 73 77
M  V30 80 1 74 78
M  V30 81 1 41 59
M  V30 82 1 63 69
M  V30 83 3 79 80
M  V30 84 1 80 81
M  V30 85 2 81 82
M  V30 86 1 82 83
M  V30 87 2 83 84
M  V30 88 1 84 85
M  V30 89 2 85 86
M  V30 90 1 86 87
M  V30 91 2 87 88
M  V30 92 1 88 89
M  V30 93 2 89 90
M  V30 94 1 90 81
M  V30 95 1 90 85
M  V30 96 1 82 91
M  V30 97 1 83 92
M  V30 98 1 84 93
M  V30 99 1 86 94
M  V30 100 1 87 95
M  V30 101 1 89 96
M  V30 102 2 97 98
M  V30 103 1 98 99
M  V30 104 2 99 100
M  V30 105 1 100 101
M  V30 106 2 101 102
M  V30 107 1 102 97
M  V30 108 1 98 103
M  V30 109 1 99 104
M  V30 110 1 100 105
M  V30 111 1 102 106
M  V30 112 2 107 108
M  V30 113 1 108 109
M  V30 114 2 109 110
M  V30 115 1 110 111
M  V30 116 2 111 112
M  V30 117 1 112 107
M  V30 118 1 108 113
M  V30 119 1 109 114
M  V30 120 1 111 115
M  V30 121 1 112 116
M  V30 122 1 79 97
M  V30 123 1 101 107
M  V30 124 3 117 118
M  V30 125 1 118 119
M  V30 126 2 119 120
M  V30 127 1 120 121
M  V30 128 2 121 122
M  V30 129 1 122 123
M  V30 130 2 123 124
M  V30 131 1 124 125
M  V30 132 2 125 126
M  V30 133 1 126 127
M  V30 134 2 127 128
M  V30 135 1 128 119
M  V30 136 1 128 123
M  V30 137 1 120 129
M  V30 138 1 121 130
M  V30 139 1 122 131
M  V30 140 1 124 132
M  V30 141 1 125 133
M  V30 142 1 127 134
M  V30 143 2 135 136
M  V30 144 1 136 137
M  V30 145 2 137 138
M  V30 146 1 138 139
M  V30 147 2 139 140
M  V30 148 1 140 135
M  V30 149 1 136 141
M  V30 150 1 137 142
M  V30 151 1 138 143
M  V30 152 1 140 144
M  V30 153 2 145 146
M  V30 154 1 146 147
M  V30 155 2 147 148
M  V30 156 1 148 149
M  V30 157 2 149 150
M  V30 158 1 150 145
M  V30 159 1 146 151
M  V30 160 1 147 152
M  V30 161 1 149 153
M  V30 162 1 150 154
M  V30 163 1 117 135
M  V30 164 1 139 145
M  V30 165 9 34 1
M  V30 166 9 72 1
M  V30 167 9 88 1
M  V30 168 9 126 1
M  V30 169 9 12 2
M  V30 170 9 50 2
M  V30 171 9 110 2
M  V30 172 9 148 2
M  V30 END BOND
M  V30 END CTAB
M  END

$$$$
