
     RDKit          3D

  0  0  0  0  0  0  0  0  0  0999 V3000
M  V30 BEGIN CTAB
M  V30 COUNTS 154 172 0 0 0
M  V30 BEGIN ATOM
M  V30 1 Pd 0.0284 4.8098 0.0483 0 CHG=2
M  V30 2 Pd -0.0051 -4.4997 0.0269 0 CHG=2
M  V30 3 C 5.6767 -2.3681 -0.7189 0
M  V30 4 C 5.4651 -3.5584 -0.7649 0
M  V30 5 C 5.2987 -4.9437 -0.9557 0
M  V30 6 C 6.4013 -5.7253 -1.2516 0
M  V30 7 C 6.2620 -7.0811 -1.5661 0
M  V30 8 C 5.0227 -7.6685 -1.6233 0
M  V30 9 C 3.8741 -6.9156 -1.3185 0
M  V30 10 C 2.5679 -7.4509 -1.3866 0
M  V30 11 C 1.4977 -6.6753 -1.0491 0
M  V30 12 N 1.6447 -5.4047 -0.5995 0
M  V30 13 C 2.8439 -4.8579 -0.5562 0
M  V30 14 C 4.0050 -5.5479 -0.9387 0
M  V30 15 H 7.3829 -5.2767 -1.2552 0
M  V30 16 H 7.1451 -7.6604 -1.7887 0
M  V30 17 H 4.9154 -8.7049 -1.9023 0
M  V30 18 H 2.4306 -8.4703 -1.7102 0
M  V30 19 H 0.4768 -7.0439 -1.1254 0
M  V30 20 H 2.9143 -3.8354 -0.1932 0
M  V30 21 C 5.9037 -0.9757 -0.7618 0
M  V30 22 C 7.1967 -0.4839 -0.9682 0
M  V30 23 C 7.3992 0.8785 -1.0896 0
M  V30 24 C 6.3347 1.7608 -1.0144 0
M  V30 25 C 5.0381 1.2852 -0.8028 0
M  V30 26 C 4.8346 -0.0870 -0.6672 0
M  V30 27 H 8.0269 -1.1696 -1.0399 0
M  V30 28 H 8.3965 1.2569 -1.2555 0
M  V30 29 H 6.5132 2.8151 -1.1555 0
M  V30 30 H 3.8509 -0.4785 -0.4641 0
M  V30 31 C 3.8961 2.2019 -0.7373 0
M  V30 32 C 4.0046 3.4913 -0.2065 0
M  V30 33 C 2.8831 4.2904 -0.1177 0
M  V30 34 N 1.6781 3.8673 -0.5104 0
M  V30 35 C 1.5567 2.6519 -1.0588 0
M  V30 36 C 2.6334 1.8059 -1.1992 0
M  V30 37 H 4.9497 3.8579 0.1596 0
M  V30 38 H 2.9326 5.2978 0.2850 0
M  V30 39 H 0.5549 2.3764 -1.3851 0
M  V30 40 H 2.5096 0.8473 -1.6764 0
M  V30 41 C 1.7313 -2.3944 5.4786 0
M  V30 42 C 1.6092 -3.5856 5.3064 0
M  V30 43 C 1.3749 -4.9722 5.2325 0
M  V30 44 C 1.5843 -5.7579 6.3516 0
M  V30 45 C 1.2481 -7.1159 6.3538 0
M  V30 46 C 0.6686 -7.7011 5.2557 0
M  V30 47 C 0.4473 -6.9439 4.0908 0
M  V30 48 C -0.1711 -7.4767 2.9372 0
M  V30 49 C -0.3297 -6.6959 1.8297 0
M  V30 50 N 0.1322 -5.4225 1.7765 0
M  V30 51 C 0.6831 -4.8787 2.8442 0
M  V30 52 C 0.8392 -5.5740 4.0534 0
M  V30 53 H 1.9990 -5.3115 7.2423 0
M  V30 54 H 1.4286 -7.6985 7.2442 0
M  V30 55 H 0.3763 -8.7394 5.2734 0
M  V30 56 H -0.5165 -8.4980 2.9464 0
M  V30 57 H -0.8346 -7.0623 0.9385 0
M  V30 58 H 1.0368 -3.8538 2.7573 0
M  V30 59 C 1.7759 -1.0017 5.7047 0
M  V30 60 C 2.1119 -0.5100 6.9702 0
M  V30 61 C 2.0734 0.8516 7.2075 0
M  V30 62 C 1.7001 1.7330 6.2070 0
M  V30 63 C 1.3678 1.2576 4.9358 0
M  V30 64 C 1.4195 -0.1138 4.6918 0
M  V30 65 H 2.3906 -1.1952 7.7560 0
M  V30 66 H 2.3264 1.2300 8.1862 0
M  V30 67 H 1.6353 2.7862 6.4301 0
M  V30 68 H 1.2080 -0.5047 3.7095 0
M  V30 69 C 0.9521 2.1742 3.8700 0
M  V30 70 C 1.4658 3.4705 3.7597 0
M  V30 71 C 1.0761 4.2727 2.7067 0
M  V30 72 N 0.2275 3.8466 1.7668 0
M  V30 73 C -0.3058 2.6228 1.8710 0
M  V30 74 C 0.0194 1.7731 2.9038 0
M  V30 75 H 2.1833 3.8409 4.4734 0
M  V30 76 H 1.4514 5.2857 2.5938 0
M  V30 77 H -1.0104 2.3440 1.0887 0
M  V30 78 H -0.4537 0.8074 2.9782 0
M  V30 79 C -5.6537 2.6775 0.7890 0
M  V30 80 C -5.4407 3.8672 0.8415 0
M  V30 81 C -5.2734 5.2514 1.0400 0
M  V30 82 C -6.3753 6.0314 1.3425 0
M  V30 83 C -6.2353 7.3854 1.6648 0
M  V30 84 C -4.9958 7.9722 1.7229 0
M  V30 85 C -3.8479 7.2210 1.4114 0
M  V30 86 C -2.5415 7.7558 1.4798 0
M  V30 87 C -1.4720 6.9820 1.1358 0
M  V30 88 N -1.6200 5.7138 0.6796 0
M  V30 89 C -2.8195 5.1674 0.6354 0
M  V30 90 C -3.9797 5.8555 1.0240 0
M  V30 91 H -7.3569 5.5829 1.3455 0
M  V30 92 H -7.1178 7.9635 1.8926 0
M  V30 93 H -4.8877 9.0070 2.0077 0
M  V30 94 H -2.4035 8.7733 1.8087 0
M  V30 95 H -0.4510 7.3501 1.2122 0
M  V30 96 H -2.8905 4.1470 0.2666 0
M  V30 97 C -5.8821 1.2851 0.8245 0
M  V30 98 C -7.1767 0.7933 1.0198 0
M  V30 99 C -7.3809 -0.5695 1.1342 0
M  V30 100 C -6.3164 -1.4522 1.0628 0
M  V30 101 C -5.0181 -0.9765 0.8626 0
M  V30 102 C -4.8130 0.3961 0.7339 0
M  V30 103 H -8.0071 1.4791 1.0884 0
M  V30 104 H -8.3795 -0.9480 1.2915 0
M  V30 105 H -6.4965 -2.5068 1.1985 0
M  V30 106 H -3.8274 0.7878 0.5395 0
M  V30 107 C -3.8761 -1.8934 0.8010 0
M  V30 108 C -3.9816 -3.1805 0.2639 0
M  V30 109 C -2.8598 -3.9795 0.1789 0
M  V30 110 N -1.6571 -3.5585 0.5810 0
M  V30 111 C -1.5390 -2.3457 1.1357 0
M  V30 112 C -2.6163 -1.5000 1.2730 0
M  V30 113 H -4.9244 -3.5452 -0.1099 0
M  V30 114 H -2.9070 -4.9852 -0.2286 0
M  V30 115 H -0.5393 -2.0720 1.4697 0
M  V30 116 H -2.4952 -0.5438 1.7556 0
M  V30 117 C -1.6839 2.7040 -5.4133 0
M  V30 118 C -1.5659 3.8954 -5.2392 0
M  V30 119 C -1.3358 5.2826 -5.1630 0
M  V30 120 C -1.5418 6.0686 -6.2827 0
M  V30 121 C -1.2096 7.4275 -6.2822 0
M  V30 122 C -0.6375 8.0136 -5.1807 0
M  V30 123 C -0.4198 7.2561 -4.0154 0
M  V30 124 C 0.1915 7.7896 -2.8585 0
M  V30 125 C 0.3474 7.0084 -1.7508 0
M  V30 126 N -0.1109 5.7336 -1.7007 0
M  V30 127 C -0.6554 5.1890 -2.7714 0
M  V30 128 C -0.8078 5.8850 -3.9808 0
M  V30 129 H -1.9508 5.6215 -7.1758 0
M  V30 130 H -1.3874 8.0102 -7.1731 0
M  V30 131 H -0.3482 9.0526 -5.1961 0
M  V30 132 H 0.5340 8.8121 -2.8651 0
M  V30 133 H 0.8472 7.3757 -0.8571 0
M  V30 134 H -1.0064 4.1632 -2.6871 0
M  V30 135 C -1.7236 1.3114 -5.6404 0
M  V30 136 C -2.0470 0.8197 -6.9092 0
M  V30 137 C -2.0039 -0.5418 -7.1466 0
M  V30 138 C -1.6383 -1.4231 -6.1430 0
M  V30 139 C -1.3186 -0.9475 -4.8687 0
M  V30 140 C -1.3751 0.4236 -4.6246 0
M  V30 141 H -2.3196 1.5048 -7.6972 0
M  V30 142 H -2.2472 -0.9202 -8.1278 0
M  V30 143 H -1.5696 -2.4759 -6.3660 0
M  V30 144 H -1.1735 0.8145 -3.6403 0
M  V30 145 C -0.9104 -1.8638 -3.7997 0
M  V30 146 C -1.4222 -3.1612 -3.6941 0
M  V30 147 C -1.0392 -3.9632 -2.6386 0
M  V30 148 N -0.1988 -3.5358 -1.6919 0
M  V30 149 C 0.3325 -2.3108 -1.7909 0
M  V30 150 C 0.0135 -1.4611 -2.8257 0
M  V30 151 H -2.1334 -3.5326 -4.4138 0
M  V30 152 H -1.4133 -4.9769 -2.5290 0
M  V30 153 H 1.0301 -2.0307 -1.0027 0
M  V30 154 H 0.4846 -0.4941 -2.8957 0
M  V30 END ATOM
M  V30 BEGIN BOND
M  V30 1 3 3 4
M  V30 2 1 4 5
M  V30 3 2 5 6
M  V30 4 1 6 7
M  V30 5 2 7 8
M  V30 6 1 8 9
M  V30 7 2 9 10
M  V30 8 1 10 11
M  V30 9 2 11 12
M  V30 10 1 12 13
M  V30 11 2 13 14
M  V30 12 1 14 5
M  V30 13 1 14 9
M  V30 14 1 6 15
M  V30 15 1 7 16
M  V30 16 1 8 17
M  V30 17 1 10 18
M  V30 18 1 11 19
M  V30 19 1 13 20
M  V30 20 2 21 22
M  V30 21 1 22 23
M  V30 22 2 23 24
M  V30 23 1 24 25
M  V30 24 2 25 26
M  V30 25 1 26 21
M  V30 26 1 22 27
M  V30 27 1 23 28
M  V30 28 1 24 29
M  V30 29 1 26 30
M  V30 30 2 31 32
M  V30 31 1 32 33
M  V30 32 2 33 34
M  V30 33 1 34 35
M  V30 34 2 35 36
M  V30 35 1 36 31
M  V30 36 1 32 37
M  V30 37 1 33 38
M  V30 38 1 35 39
M  V30 39 1 36 40
M  V30 40 1 3 21
M  V30 41 1 25 31
M  V30 42 3 41 42
M  V30 43 1 42 43
M  V30 44 2 43 44
M  V30 45 1 44 45
M  V30 46 2 45 46
M  V30 47 1 46 47
M  V30 48 2 47 48
M  V30 49 1 48 49
M  V30 50 2 49 50
M  V30 51 1 50 51
M  V30 52 2 51 52
M  V30 53 1 52 43
M  V30 54 1 52 47
M  V30 55 1 44 53
M  V30 56 1 45 54
M  V30 57 1 46 55
M  V30 58 1 48 56
M  V30 59 1 49 57
M  V30 60 1 51 58
M  V30 61 2 59 60
M  V30 62 1 60 61
M  V30 63 2 61 62
M  V30 64 1 62 63
M  V30 65 2 63 64
M  V30 66 1 64 59
M  V30 67 1 60 65
M  V30 68 1 61 66
M  V30 69 1 62 67
M  V30 70 1 64 68
M  V30 71 2 69 70
M  V30 72 1 70 71
M  V30 73 2 71 72
M  V30 74 1 72 73
M  V30 75 2 73 74
M  V30 76 1 74 69
M  V30 77 1 70 75
M  V30 78 1 71 76
M  V30 79 1 73 77
M  V30 80 1 74 78
M  V30 81 1 41 59
M  V30 82 1 63 69
M  V30 83 3 79 80
M  V30 84 1 80 81
M  V30 85 2 81 82
M  V30 86 1 82 83
M  V30 87 2 83 84
M  V30 88 1 84 85
M  V30 89 2 85 86
M  V30 90 1 86 87
M  V30 91 2 87 88
M  V30 92 1 88 89
M  V30 93 2 89 90
M  V30 94 1 90 81
M  V30 95 1 90 85
M  V30 96 1 82 91
M  V30 97 1 83 92
M  V30 98 1 84 93
M  V30 99 1 86 94
M  V30 100 1 87 95
M  V30 101 1 89 96
M  V30 102 2 97 98
M  V30 103 1 98 99
M  V30 104 2 99 100
M  V30 105 1 100 101
M  V30 106 2 101 102
M  V30 107 1 102 97
M  V30 108 1 98 103
M  V30 109 1 99 104
M  V30 110 1 100 105
M  V30 111 1 102 106
M  V30 112 2 107 108
M  V30 113 1 108 109
M  V30 114 2 109 110
M  V30 115 1 110 111
M  V30 116 2 111 112
M  V30 117 1 112 107
M  V30 118 1 108 113
M  V30 119 1 109 114
M  V30 120 1 111 115
M  V30 121 1 112 116
M  V30 122 1 79 97
M  V30 123 1 101 107
M  V30 124 3 117 118
M  V30 125 1 118 119
M  V30 126 2 119 120
M  V30 127 1 120 121
M  V30 128 2 121 122
M  V30 129 1 122 123
M  V30 130 2 123 124
M  V30 131 1 124 125
M  V30 132 2 125 126
M  V30 133 1 126 127
M  V30 134 2 127 128
M  V30 135 1 128 119
M  V30 136 1 128 123
M  V30 137 1 120 129
M  V30 138 1 121 130
M  V30 139 1 122 131
M  V30 140 1 124 132
M  V30 141 1 125 133
M  V30 142 1 127 134
M  V30 143 2 135 136
M  V30 144 1 136 137
M  V30 145 2 137 138
M  V30 146 1 138 139
M  V30 147 2 139 140
M  V30 148 1 140 135
M  V30 149 1 136 141
M  V30 150 1 137 142
M  V30 151 1 138 143
M  V30 152 1 140 144
M  V30 153 2 145 146
M  V30 154 1 146 147
M  V30 155 2 147 148
M  V30 156 1 148 149
M  V30 157 2 149 150
M  V30 158 1 150 145
M  V30 159 1 146 151
M  V30 160 1 147 152
M  V30 161 1 149 153
M  V30 162 1 150 154
M  V30 163 1 117 135
M  V30 164 1 139 145
M  V30 165 9 34 1
M  V30 166 9 72 1
M  V30 167 9 88 1
M  V30 168 9 126 1
M  V30 169 9 12 2
M  V30 170 9 50 2
M  V30 171 9 110 2
M  V30 172 9 148 2
M  V30 END BOND
M  V30 END CTAB
M  END

$$$$
