
     RDKit          3D

  0  0  0  0  0  0  0  0  0  0999 V3000
M  V30 BEGIN CTAB
M  V30 COUNTS 154 172 0 0 0
M  V30 BEGIN ATOM
M  V30 1 Pd -2.7125 3.1522 -1.7674 0 CHG=2
M  V30 2 Pd 3.1836 -2.9363 2.0840 0 CHG=2
M  V30 3 C -2.5872 -4.8724 2.6604 0
M  V30 4 C -1.6840 -5.5009 3.1632 0
M  V30 5 C -0.7171 -6.2290 3.8830 0
M  V30 6 C -1.1089 -7.3298 4.6236 0
M  V30 7 C -0.2024 -8.0066 5.4464 0
M  V30 8 C 1.0956 -7.5771 5.5691 0
M  V30 9 C 1.5419 -6.4691 4.8261 0
M  V30 10 C 2.8556 -5.9584 4.9279 0
M  V30 11 C 3.2339 -4.8986 4.1568 0
M  V30 12 N 2.3987 -4.3367 3.2485 0
M  V30 13 C 1.1543 -4.7617 3.1494 0
M  V30 14 C 0.6455 -5.8053 3.9384 0
M  V30 15 H -2.1348 -7.6615 4.5773 0
M  V30 16 H -0.5431 -8.8634 6.0074 0
M  V30 17 H 1.7825 -8.0785 6.2328 0
M  V30 18 H 3.5467 -6.4115 5.6205 0
M  V30 19 H 4.2253 -4.4574 4.2368 0
M  V30 20 H 0.5186 -4.2794 2.4107 0
M  V30 21 C -3.6450 -4.0852 2.1564 0
M  V30 22 C -4.9688 -4.5068 2.3179 0
M  V30 23 C -6.0026 -3.6925 1.8937 0
M  V30 24 C -5.7414 -2.4617 1.3156 0
M  V30 25 C -4.4242 -2.0293 1.1424 0
M  V30 26 C -3.3809 -2.8551 1.5576 0
M  V30 27 H -5.1763 -5.4599 2.7795 0
M  V30 28 H -7.0243 -4.0156 2.0246 0
M  V30 29 H -6.5661 -1.8267 1.0328 0
M  V30 30 H -2.3548 -2.5641 1.4004 0
M  V30 31 C -4.1276 -0.7225 0.5481 0
M  V30 32 C -4.9316 -0.1560 -0.4464 0
M  V30 33 C -4.5722 1.0511 -1.0103 0
M  V30 34 N -3.4620 1.7003 -0.6483 0
M  V30 35 C -2.6981 1.1977 0.3297 0
M  V30 36 C -3.0028 0.0090 0.9532 0
M  V30 37 H -5.8142 -0.6655 -0.7970 0
M  V30 38 H -5.1757 1.5211 -1.7813 0
M  V30 39 H -1.8231 1.7876 0.5991 0
M  V30 40 H -2.3868 -0.3516 1.7610 0
M  V30 41 C 1.4851 -4.8366 -3.4544 0
M  V30 42 C 2.2994 -5.4728 -2.8252 0
M  V30 43 C 3.3387 -6.2047 -2.2195 0
M  V30 44 C 3.8698 -7.3013 -2.8747 0
M  V30 45 C 4.9814 -7.9795 -2.3634 0
M  V30 46 C 5.5989 -7.5559 -1.2131 0
M  V30 47 C 5.0870 -6.4523 -0.5066 0
M  V30 48 C 5.6912 -5.9470 0.6668 0
M  V30 49 C 5.1268 -4.8908 1.3206 0
M  V30 50 N 3.9648 -4.3281 0.9074 0
M  V30 51 C 3.3897 -4.7487 -0.2024 0
M  V30 52 C 3.9196 -5.7876 -0.9833 0
M  V30 53 H 3.4286 -7.6282 -3.8038 0
M  V30 54 H 5.3665 -8.8329 -2.9004 0
M  V30 55 H 6.4782 -8.0583 -0.8415 0
M  V30 56 H 6.5984 -6.4009 1.0318 0
M  V30 57 H 5.5857 -4.4534 2.2047 0
M  V30 58 H 2.4605 -4.2667 -0.4977 0
M  V30 59 C 0.6117 -4.0400 -4.2259 0
M  V30 60 C 0.2663 -4.4362 -5.5219 0
M  V30 61 C -0.5228 -3.6112 -6.3021 0
M  V30 62 C -0.9697 -2.3943 -5.8156 0
M  V30 63 C -0.6384 -1.9875 -4.5207 0
M  V30 64 C 0.1457 -2.8247 -3.7287 0
M  V30 65 H 0.6238 -5.3780 -5.9088 0
M  V30 66 H -0.7835 -3.9145 -7.3047 0
M  V30 67 H -1.5467 -1.7497 -6.4597 0
M  V30 68 H 0.3824 -2.5547 -2.7120 0
M  V30 69 C -1.0868 -0.6943 -3.9958 0
M  V30 70 C -2.3123 -0.1269 -4.3599 0
M  V30 71 C -2.7060 1.0693 -3.7959 0
M  V30 72 N -1.9580 1.7068 -2.8907 0
M  V30 73 C -0.7644 1.2020 -2.5537 0
M  V30 74 C -0.2954 0.0238 -3.0890 0
M  V30 75 H -2.9652 -0.6269 -5.0565 0
M  V30 76 H -3.6485 1.5400 -4.0599 0
M  V30 77 H -0.1910 1.7813 -1.8314 0
M  V30 78 H 0.6845 -0.3379 -2.8231 0
M  V30 79 C 3.0581 5.0900 -2.3390 0
M  V30 80 C 2.1554 5.7147 -2.8472 0
M  V30 81 C 1.1898 6.4383 -3.5733 0
M  V30 82 C 1.5832 7.5352 -4.3192 0
M  V30 83 C 0.6786 8.2071 -5.1482 0
M  V30 84 C -0.6189 7.7767 -5.2714 0
M  V30 85 C -1.0669 6.6729 -4.5231 0
M  V30 86 C -2.3804 6.1616 -4.6250 0
M  V30 87 C -2.7604 5.1060 -3.8489 0
M  V30 88 N -1.9272 4.5491 -2.9358 0
M  V30 89 C -0.6830 4.9748 -2.8361 0
M  V30 90 C -0.1725 6.0143 -3.6295 0
M  V30 91 H 2.6090 7.8671 -4.2723 0
M  V30 92 H 1.0207 9.0606 -5.7132 0
M  V30 93 H -1.3044 8.2741 -5.9395 0
M  V30 94 H -3.0700 6.6109 -5.3215 0
M  V30 95 H -3.7516 4.6646 -3.9286 0
M  V30 96 H -0.0491 4.4967 -2.0932 0
M  V30 97 C 4.1156 4.3067 -1.8287 0
M  V30 98 C 5.4388 4.7337 -1.9803 0
M  V30 99 C 6.4730 3.9230 -1.5498 0
M  V30 100 C 6.2125 2.6904 -0.9751 0
M  V30 101 C 4.8960 2.2525 -0.8118 0
M  V30 102 C 3.8524 3.0747 -1.2332 0
M  V30 103 H 5.6459 5.6882 -2.4392 0
M  V30 104 H 7.4942 4.2503 -1.6731 0
M  V30 105 H 7.0378 2.0584 -0.6874 0
M  V30 106 H 2.8264 2.7792 -1.0838 0
M  V30 107 C 4.6003 0.9439 -0.2211 0
M  V30 108 C 5.3993 0.3797 0.7786 0
M  V30 109 C 5.0405 -0.8292 1.3391 0
M  V30 110 N 3.9349 -1.4821 0.9693 0
M  V30 111 C 3.1762 -0.9816 -0.0139 0
M  V30 112 C 3.4810 0.2086 -0.6346 0
M  V30 113 H 6.2777 0.8920 1.1357 0
M  V30 114 H 5.6403 -1.2975 2.1141 0
M  V30 115 H 2.3053 -1.5743 -0.2897 0
M  V30 116 H 2.8695 0.5672 -1.4466 0
M  V30 117 C -1.0336 5.0406 3.7833 0
M  V30 118 C -1.8446 5.6789 3.1518 0
M  V30 119 C -2.8807 6.4130 2.5433 0
M  V30 120 C -3.4147 7.5077 3.1993 0
M  V30 121 C -4.5232 8.1881 2.6846 0
M  V30 122 C -5.1352 7.7684 1.5300 0
M  V30 123 C -4.6203 6.6667 0.8226 0
M  V30 124 C -5.2191 6.1651 -0.3549 0
M  V30 125 C -4.6524 5.1105 -1.0091 0
M  V30 126 N -3.4927 4.5458 -0.5921 0
M  V30 127 C -2.9225 4.9629 0.5215 0
M  V30 128 C -3.4556 5.9999 1.3030 0
M  V30 129 H -2.9778 7.8315 4.1317 0
M  V30 130 H -4.9107 9.0400 3.2224 0
M  V30 131 H -6.0123 8.2723 1.1555 0
M  V30 132 H -6.1244 6.6207 -0.7232 0
M  V30 133 H -5.1075 4.6758 -1.8965 0
M  V30 134 H -1.9952 4.4796 0.8201 0
M  V30 135 C -0.1642 4.2413 4.5563 0
M  V30 136 C 0.1712 4.6308 5.8571 0
M  V30 137 C 0.9567 3.8030 6.6380 0
M  V30 138 C 1.4099 2.5899 6.1477 0
M  V30 139 C 1.0885 2.1900 4.8482 0
M  V30 140 C 0.3083 3.0300 4.0554 0
M  V30 141 H -0.1913 5.5696 6.2470 0
M  V30 142 H 1.2097 4.1011 7.6441 0
M  V30 143 H 1.9838 1.9429 6.7918 0
M  V30 144 H 0.0793 2.7655 3.0355 0
M  V30 145 C 1.5429 0.9005 4.3192 0
M  V30 146 C 2.7670 0.3331 4.6882 0
M  V30 147 C 3.1659 -0.8597 4.1208 0
M  V30 148 N 2.4246 -1.4938 3.2080 0
M  V30 149 C 1.2326 -0.9891 2.8655 0
M  V30 150 C 0.7586 0.1860 3.4034 0
M  V30 151 H 3.4146 0.8308 5.3915 0
M  V30 152 H 4.1075 -1.3305 4.3884 0
M  V30 153 H 0.6647 -1.5653 2.1364 0
M  V30 154 H -0.2199 0.5481 3.1329 0
M  V30 END ATOM
M  V30 BEGIN BOND
M  V30 1 3 3 4
M  V30 2 1 4 5
M  V30 3 2 5 6
M  V30 4 1 6 7
M  V30 5 2 7 8
M  V30 6 1 8 9
M  V30 7 2 9 10
M  V30 8 1 10 11
M  V30 9 2 11 12
M  V30 10 1 12 13
M  V30 11 2 13 14
M  V30 12 1 14 5
M  V30 13 1 14 9
M  V30 14 1 6 15
M  V30 15 1 7 16
M  V30 16 1 8 17
M  V30 17 1 10 18
M  V30 18 1 11 19
M  V30 19 1 13 20
M  V30 20 2 21 22
M  V30 21 1 22 23
M  V30 22 2 23 24
M  V30 23 1 24 25
M  V30 24 2 25 26
M  V30 25 1 26 21
M  V30 26 1 22 27
M  V30 27 1 23 28
M  V30 28 1 24 29
M  V30 29 1 26 30
M  V30 30 2 31 32
M  V30 31 1 32 33
M  V30 32 2 33 34
M  V30 33 1 34 35
M  V30 34 2 35 36
M  V30 35 1 36 31
M  V30 36 1 32 37
M  V30 37 1 33 38
M  V30 38 1 35 39
M  V30 39 1 36 40
M  V30 40 1 3 21
M  V30 41 1 25 31
M  V30 42 3 41 42
M  V30 43 1 42 43
M  V30 44 2 43 44
M  V30 45 1 44 45
M  V30 46 2 45 46
M  V30 47 1 46 47
M  V30 48 2 47 48
M  V30 49 1 48 49
M  V30 50 2 49 50
M  V30 51 1 50 51
M  V30 52 2 51 52
M  V30 53 1 52 43
M  V30 54 1 52 47
M  V30 55 1 44 53
M  V30 56 1 45 54
M  V30 57 1 46 55
M  V30 58 1 48 56
M  V30 59 1 49 57
M  V30 60 1 51 58
M  V30 61 2 59 60
M  V30 62 1 60 61
M  V30 63 2 61 62
M  V30 64 1 62 63
M  V30 65 2 63 64
M  V30 66 1 64 59
M  V30 67 1 60 65
M  V30 68 1 61 66
M  V30 69 1 62 67
M  V30 70 1 64 68
M  V30 71 2 69 70
M  V30 72 1 70 71
M  V30 73 2 71 72
M  V30 74 1 72 73
M  V30 75 2 73 74
M  V30 76 1 74 69
M  V30 77 1 70 75
M  V30 78 1 71 76
M  V30 79 1 73 77
M  V30 80 1 74 78
M  V30 81 1 41 59
M  V30 82 1 63 69
M  V30 83 3 79 80
M  V30 84 1 80 81
M  V30 85 2 81 82
M  V30 86 1 82 83
M  V30 87 2 83 84
M  V30 88 1 84 85
M  V30 89 2 85 86
M  V30 90 1 86 87
M  V30 91 2 87 88
M  V30 92 1 88 89
M  V30 93 2 89 90
M  V30 94 1 90 81
M  V30 95 1 90 85
M  V30 96 1 82 91
M  V30 97 1 83 92
M  V30 98 1 84 93
M  V30 99 1 86 94
M  V30 100 1 87 95
M  V30 101 1 89 96
M  V30 102 2 97 98
M  V30 103 1 98 99
M  V30 104 2 99 100
M  V30 105 1 100 101
M  V30 106 2 101 102
M  V30 107 1 102 97
M  V30 108 1 98 103
M  V30 109 1 99 104
M  V30 110 1 100 105
M  V30 111 1 102 106
M  V30 112 2 107 108
M  V30 113 1 108 109
M  V30 114 2 109 110
M  V30 115 1 110 111
M  V30 116 2 111 112
M  V30 117 1 112 107
M  V30 118 1 108 113
M  V30 119 1 109 114
M  V30 120 1 111 115
M  V30 121 1 112 116
M  V30 122 1 79 97
M  V30 123 1 101 107
M  V30 124 3 117 118
M  V30 125 1 118 119
M  V30 126 2 119 120
M  V30 127 1 120 121
M  V30 128 2 121 122
M  V30 129 1 122 123
M  V30 130 2 123 124
M  V30 131 1 124 125
M  V30 132 2 125 126
M  V30 133 1 126 127
M  V30 134 2 127 128
M  V30 135 1 128 119
M  V30 136 1 128 123
M  V30 137 1 120 129
M  V30 138 1 121 130
M  V30 139 1 122 131
M  V30 140 1 124 132
M  V30 141 1 125 133
M  V30 142 1 127 134
M  V30 143 2 135 136
M  V30 144 1 136 137
M  V30 145 2 137 138
M  V30 146 1 138 139
M  V30 147 2 139 140
M  V30 148 1 140 135
M  V30 149 1 136 141
M  V30 150 1 137 142
M  V30 151 1 138 143
M  V30 152 1 140 144
M  V30 153 2 145 146
M  V30 154 1 146 147
M  V30 155 2 147 148
M  V30 156 1 148 149
M  V30 157 2 149 150
M  V30 158 1 150 145
M  V30 159 1 146 151
M  V30 160 1 147 152
M  V30 161 1 149 153
M  V30 162 1 150 154
M  V30 163 1 117 135
M  V30 164 1 139 145
M  V30 165 9 34 1
M  V30 166 9 72 1
M  V30 167 9 88 1
M  V30 168 9 126 1
M  V30 169 9 12 2
M  V30 170 9 50 2
M  V30 171 9 110 2
M  V30 172 9 148 2
M  V30 END BOND
M  V30 END CTAB
M  END

$$$$
