
     RDKit          3D

  0  0  0  0  0  0  0  0  0  0999 V3000
M  V30 BEGIN CTAB
M  V30 COUNTS 154 172 0 0 0
M  V30 BEGIN ATOM
M  V30 1 Pd 0.1320 -3.7674 2.1360 0 CHG=2
M  V30 2 Pd 0.1589 3.9404 -3.0847 0 CHG=2
M  V30 3 C 0.4056 -1.0471 -6.6127 0
M  V30 4 C 0.4702 0.0527 -7.1127 0
M  V30 5 C 0.6751 1.2810 -7.7703 0
M  V30 6 C 0.8740 1.2929 -9.1393 0
M  V30 7 C 1.1998 2.4756 -9.8115 0
M  V30 8 C 1.3650 3.6538 -9.1268 0
M  V30 9 C 1.1614 3.6918 -7.7353 0
M  V30 10 C 1.3433 4.8639 -6.9671 0
M  V30 11 C 1.1002 4.8408 -5.6250 0
M  V30 12 N 0.6392 3.7308 -4.9975 0
M  V30 13 C 0.4912 2.6080 -5.6731 0
M  V30 14 C 0.7712 2.5072 -7.0449 0
M  V30 15 H 0.7918 0.3712 -9.6946 0
M  V30 16 H 1.3446 2.4474 -10.8807 0
M  V30 17 H 1.6525 4.5564 -9.6427 0
M  V30 18 H 1.6779 5.7671 -7.4519 0
M  V30 19 H 1.2655 5.7146 -4.9981 0
M  V30 20 H 0.1232 1.7418 -5.1286 0
M  V30 21 C 0.4281 -2.3270 -6.0177 0
M  V30 22 C 0.5208 -3.4692 -6.8195 0
M  V30 23 C 0.6237 -4.7143 -6.2270 0
M  V30 24 C 0.6414 -4.8418 -4.8483 0
M  V30 25 C 0.5439 -3.7106 -4.0342 0
M  V30 26 C 0.4269 -2.4562 -4.6304 0
M  V30 27 H 0.5199 -3.3725 -7.8943 0
M  V30 28 H 0.7019 -5.5950 -6.8464 0
M  V30 29 H 0.7661 -5.8199 -4.4112 0
M  V30 30 H 0.3104 -1.5704 -4.0268 0
M  V30 31 C 0.5780 -3.8234 -2.5731 0
M  V30 32 C 0.0394 -4.9233 -1.8975 0
M  V30 33 C 0.0485 -4.9492 -0.5179 0
M  V30 34 N 0.5450 -3.9426 0.2071 0
M  V30 35 C 1.1021 -2.8976 -0.4174 0
M  V30 36 C 1.1483 -2.8102 -1.7904 0
M  V30 37 H -0.4080 -5.7386 -2.4422 0
M  V30 38 H -0.3572 -5.7894 0.0382 0
M  V30 39 H 1.5147 -2.1237 0.2283 0
M  V30 40 H 1.6348 -1.9724 -2.2631 0
M  V30 41 C -5.4242 1.4957 -2.9351 0
M  V30 42 C -5.2417 2.5398 -3.5184 0
M  V30 43 C -5.1472 3.8130 -4.1123 0
M  V30 44 C -6.2801 4.3998 -4.6471 0
M  V30 45 C -6.2525 5.7104 -5.1356 0
M  V30 46 C -5.1080 6.4650 -5.0676 0
M  V30 47 C -3.9285 5.9062 -4.5424 0
M  V30 48 C -2.7251 6.6365 -4.4167 0
M  V30 49 C -1.6082 6.0259 -3.9258 0
M  V30 50 N -1.5958 4.7121 -3.5920 0
M  V30 51 C -2.7076 4.0062 -3.6621 0
M  V30 52 C -3.9257 4.5527 -4.0955 0
M  V30 53 H -7.2037 3.8422 -4.6727 0
M  V30 54 H -7.1552 6.1343 -5.5484 0
M  V30 55 H -5.0998 7.4876 -5.4108 0
M  V30 56 H -2.7038 7.6745 -4.7075 0
M  V30 57 H -0.6762 6.5680 -3.7808 0
M  V30 58 H -2.6522 2.9568 -3.3818 0
M  V30 59 C -5.6537 0.3314 -2.1707 0
M  V30 60 C -6.9438 -0.2009 -2.0791 0
M  V30 61 C -7.1772 -1.2923 -1.2629 0
M  V30 62 C -6.1481 -1.8602 -0.5309 0
M  V30 63 C -4.8527 -1.3438 -0.6168 0
M  V30 64 C -4.6138 -0.2520 -1.4498 0
M  V30 65 H -7.7507 0.2474 -2.6381 0
M  V30 66 H -8.1744 -1.6986 -1.1874 0
M  V30 67 H -6.3651 -2.6828 0.1320 0
M  V30 68 H -3.6167 0.1411 -1.5667 0
M  V30 69 C -3.7550 -1.9202 0.1652 0
M  V30 70 C -3.6903 -3.2848 0.4652 0
M  V30 71 C -2.6075 -3.7807 1.1622 0
M  V30 72 N -1.5971 -2.9987 1.5529 0
M  V30 73 C -1.6540 -1.6832 1.3095 0
M  V30 74 C -2.7111 -1.1128 0.6373 0
M  V30 75 H -4.4639 -3.9584 0.1348 0
M  V30 76 H -2.5281 -4.8337 1.4162 0
M  V30 77 H -0.8132 -1.0959 1.6760 0
M  V30 78 H -2.7435 -0.0459 0.4876 0
M  V30 79 C -0.1096 1.2206 5.6635 0
M  V30 80 C -0.1809 0.1209 6.1624 0
M  V30 81 C -0.3935 -1.1066 6.8191 0
M  V30 82 C -0.5991 -1.1174 8.1873 0
M  V30 83 C -0.9326 -2.2986 8.8583 0
M  V30 84 C -1.0988 -3.4763 8.1732 0
M  V30 85 C -0.8885 -3.5156 6.7828 0
M  V30 86 C -1.0706 -4.6874 6.0141 0
M  V30 87 C -0.8211 -4.6657 4.6731 0
M  V30 88 N -0.3534 -3.5576 4.0474 0
M  V30 89 C -0.2045 -2.4349 4.7233 0
M  V30 90 C -0.4906 -2.3328 6.0939 0
M  V30 91 H -0.5162 -0.1957 8.7425 0
M  V30 92 H -1.0828 -2.2693 9.9267 0
M  V30 93 H -1.3922 -4.3777 8.6879 0
M  V30 94 H -1.4106 -5.5892 6.4976 0
M  V30 95 H -0.9863 -5.5392 4.0460 0
M  V30 96 H 0.1694 -1.5704 4.1802 0
M  V30 97 C -0.1248 2.5008 5.0692 0
M  V30 98 C -0.2062 3.6436 5.8714 0
M  V30 99 C -0.3020 4.8896 5.2796 0
M  V30 100 C -0.3235 5.0175 3.9009 0
M  V30 101 C -0.2374 3.8858 3.0863 0
M  V30 102 C -0.1274 2.6305 3.6818 0
M  V30 103 H -0.2023 3.5466 6.9462 0
M  V30 104 H -0.3714 5.7707 5.8993 0
M  V30 105 H -0.4427 5.9966 3.4645 0
M  V30 106 H -0.0200 1.7440 3.0776 0
M  V30 107 C -0.2755 3.9990 1.6253 0
M  V30 108 C 0.2692 5.0949 0.9482 0
M  V30 109 C 0.2562 5.1210 -0.4315 0
M  V30 110 N -0.2493 4.1178 -1.1551 0
M  V30 111 C -0.8126 3.0771 -0.5287 0
M  V30 112 C -0.8556 2.9901 0.8443 0
M  V30 113 H 0.7240 5.9070 1.4915 0
M  V30 114 H 0.6666 5.9581 -0.9887 0
M  V30 115 H -1.2326 2.3062 -1.1732 0
M  V30 116 H -1.3472 2.1561 1.3182 0
M  V30 117 C 5.7227 -1.3363 1.9656 0
M  V30 118 C 5.5387 -2.3782 2.5525 0
M  V30 119 C 5.4423 -3.6494 3.1504 0
M  V30 120 C 6.5755 -4.2383 3.6824 0
M  V30 121 C 6.5455 -5.5473 4.1749 0
M  V30 122 C 5.3983 -6.2983 4.1137 0
M  V30 123 C 4.2187 -5.7373 3.5914 0
M  V30 124 C 3.0127 -6.4640 3.4722 0
M  V30 125 C 1.8959 -5.8516 2.9833 0
M  V30 126 N 1.8862 -4.5387 2.6456 0
M  V30 127 C 3.0004 -3.8360 2.7098 0
M  V30 128 C 4.2184 -4.3851 3.1404 0
M  V30 129 H 7.5010 -3.6835 3.7028 0
M  V30 130 H 7.4485 -5.9729 4.5856 0
M  V30 131 H 5.3881 -7.3198 4.4601 0
M  V30 132 H 2.9891 -7.5013 3.7662 0
M  V30 133 H 0.9618 -6.3914 2.8432 0
M  V30 134 H 2.9475 -2.7874 2.4264 0
M  V30 135 C 5.9528 -0.1749 1.1970 0
M  V30 136 C 7.2451 0.3502 1.0948 0
M  V30 137 C 7.4782 1.4390 0.2750 0
M  V30 138 C 6.4468 2.0112 -0.4504 0
M  V30 139 C 5.1494 1.5018 -0.3539 0
M  V30 140 C 4.9107 0.4130 0.4829 0
M  V30 141 H 8.0538 -0.1016 1.6486 0
M  V30 142 H 8.4770 1.8397 0.1913 0
M  V30 143 H 6.6632 2.8314 -1.1163 0
M  V30 144 H 3.9124 0.0255 0.6081 0
M  V30 145 C 4.0491 2.0823 -1.1293 0
M  V30 146 C 3.9889 3.4467 -1.4318 0
M  V30 147 C 2.9041 3.9461 -2.1230 0
M  V30 148 N 1.8876 3.1681 -2.5057 0
M  V30 149 C 1.9396 1.8530 -2.2596 0
M  V30 150 C 2.9981 1.2790 -1.5926 0
M  V30 151 H 4.7680 4.1172 -1.1076 0
M  V30 152 H 2.8279 4.9990 -2.3787 0
M  V30 153 H 1.0935 1.2689 -2.6191 0
M  V30 154 H 3.0265 0.2124 -1.4403 0
M  V30 END ATOM
M  V30 BEGIN BOND
M  V30 1 3 3 4
M  V30 2 1 4 5
M  V30 3 2 5 6
M  V30 4 1 6 7
M  V30 5 2 7 8
M  V30 6 1 8 9
M  V30 7 2 9 10
M  V30 8 1 10 11
M  V30 9 2 11 12
M  V30 10 1 12 13
M  V30 11 2 13 14
M  V30 12 1 14 5
M  V30 13 1 14 9
M  V30 14 1 6 15
M  V30 15 1 7 16
M  V30 16 1 8 17
M  V30 17 1 10 18
M  V30 18 1 11 19
M  V30 19 1 13 20
M  V30 20 2 21 22
M  V30 21 1 22 23
M  V30 22 2 23 24
M  V30 23 1 24 25
M  V30 24 2 25 26
M  V30 25 1 26 21
M  V30 26 1 22 27
M  V30 27 1 23 28
M  V30 28 1 24 29
M  V30 29 1 26 30
M  V30 30 2 31 32
M  V30 31 1 32 33
M  V30 32 2 33 34
M  V30 33 1 34 35
M  V30 34 2 35 36
M  V30 35 1 36 31
M  V30 36 1 32 37
M  V30 37 1 33 38
M  V30 38 1 35 39
M  V30 39 1 36 40
M  V30 40 1 3 21
M  V30 41 1 25 31
M  V30 42 3 41 42
M  V30 43 1 42 43
M  V30 44 2 43 44
M  V30 45 1 44 45
M  V30 46 2 45 46
M  V30 47 1 46 47
M  V30 48 2 47 48
M  V30 49 1 48 49
M  V30 50 2 49 50
M  V30 51 1 50 51
M  V30 52 2 51 52
M  V30 53 1 52 43
M  V30 54 1 52 47
M  V30 55 1 44 53
M  V30 56 1 45 54
M  V30 57 1 46 55
M  V30 58 1 48 56
M  V30 59 1 49 57
M  V30 60 1 51 58
M  V30 61 2 59 60
M  V30 62 1 60 61
M  V30 63 2 61 62
M  V30 64 1 62 63
M  V30 65 2 63 64
M  V30 66 1 64 59
M  V30 67 1 60 65
M  V30 68 1 61 66
M  V30 69 1 62 67
M  V30 70 1 64 68
M  V30 71 2 69 70
M  V30 72 1 70 71
M  V30 73 2 71 72
M  V30 74 1 72 73
M  V30 75 2 73 74
M  V30 76 1 74 69
M  V30 77 1 70 75
M  V30 78 1 71 76
M  V30 79 1 73 77
M  V30 80 1 74 78
M  V30 81 1 41 59
M  V30 82 1 63 69
M  V30 83 3 79 80
M  V30 84 1 80 81
M  V30 85 2 81 82
M  V30 86 1 82 83
M  V30 87 2 83 84
M  V30 88 1 84 85
M  V30 89 2 85 86
M  V30 90 1 86 87
M  V30 91 2 87 88
M  V30 92 1 88 89
M  V30 93 2 89 90
M  V30 94 1 90 81
M  V30 95 1 90 85
M  V30 96 1 82 91
M  V30 97 1 83 92
M  V30 98 1 84 93
M  V30 99 1 86 94
M  V30 100 1 87 95
M  V30 101 1 89 96
M  V30 102 2 97 98
M  V30 103 1 98 99
M  V30 104 2 99 100
M  V30 105 1 100 101
M  V30 106 2 101 102
M  V30 107 1 102 97
M  V30 108 1 98 103
M  V30 109 1 99 104
M  V30 110 1 100 105
M  V30 111 1 102 106
M  V30 112 2 107 108
M  V30 113 1 108 109
M  V30 114 2 109 110
M  V30 115 1 110 111
M  V30 116 2 111 112
M  V30 117 1 112 107
M  V30 118 1 108 113
M  V30 119 1 109 114
M  V30 120 1 111 115
M  V30 121 1 112 116
M  V30 122 1 79 97
M  V30 123 1 101 107
M  V30 124 3 117 118
M  V30 125 1 118 119
M  V30 126 2 119 120
M  V30 127 1 120 121
M  V30 128 2 121 122
M  V30 129 1 122 123
M  V30 130 2 123 124
M  V30 131 1 124 125
M  V30 132 2 125 126
M  V30 133 1 126 127
M  V30 134 2 127 128
M  V30 135 1 128 119
M  V30 136 1 128 123
M  V30 137 1 120 129
M  V30 138 1 121 130
M  V30 139 1 122 131
M  V30 140 1 124 132
M  V30 141 1 125 133
M  V30 142 1 127 134
M  V30 143 2 135 136
M  V30 144 1 136 137
M  V30 145 2 137 138
M  V30 146 1 138 139
M  V30 147 2 139 140
M  V30 148 1 140 135
M  V30 149 1 136 141
M  V30 150 1 137 142
M  V30 151 1 138 143
M  V30 152 1 140 144
M  V30 153 2 145 146
M  V30 154 1 146 147
M  V30 155 2 147 148
M  V30 156 1 148 149
M  V30 157 2 149 150
M  V30 158 1 150 145
M  V30 159 1 146 151
M  V30 160 1 147 152
M  V30 161 1 149 153
M  V30 162 1 150 154
M  V30 163 1 117 135
M  V30 164 1 139 145
M  V30 165 9 34 1
M  V30 166 9 72 1
M  V30 167 9 88 1
M  V30 168 9 126 1
M  V30 169 9 12 2
M  V30 170 9 50 2
M  V30 171 9 110 2
M  V30 172 9 148 2
M  V30 END BOND
M  V30 END CTAB
M  END

$$$$
