
     RDKit          3D

  0  0  0  0  0  0  0  0  0  0999 V3000
M  V30 BEGIN CTAB
M  V30 COUNTS 154 172 0 0 0
M  V30 BEGIN ATOM
M  V30 1 Pd -0.4830 4.3524 0.7077 0 CHG=2
M  V30 2 Pd 1.1920 -4.7474 -0.3203 0 CHG=2
M  V30 3 C 6.3829 -1.5444 -0.7425 0
M  V30 4 C 6.3930 -2.7411 -0.9202 0
M  V30 5 C 6.4828 -4.1042 -1.2621 0
M  V30 6 C 7.7086 -4.6339 -1.6235 0
M  V30 7 C 7.8191 -5.9499 -2.0848 0
M  V30 8 C 6.7083 -6.7441 -2.2244 0
M  V30 9 C 5.4425 -6.2518 -1.8581 0
M  V30 10 C 4.2564 -7.0062 -2.0040 0
M  V30 11 C 3.0636 -6.4810 -1.6014 0
M  V30 12 N 2.9769 -5.2616 -1.0149 0
M  V30 13 C 4.0557 -4.5128 -0.8940 0
M  V30 14 C 5.3220 -4.9330 -1.3307 0
M  V30 15 H 8.5913 -4.0158 -1.5633 0
M  V30 16 H 8.7925 -6.3301 -2.3549 0
M  V30 17 H 6.7918 -7.7460 -2.6155 0
M  V30 18 H 4.3070 -7.9921 -2.4380 0
M  V30 19 H 2.1273 -7.0194 -1.7331 0
M  V30 20 H 3.9389 -3.5405 -0.4215 0
M  V30 21 C 6.3503 -0.1376 -0.6310 0
M  V30 22 C 7.5302 0.6017 -0.7629 0
M  V30 23 C 7.4788 1.9832 -0.7332 0
M  V30 24 C 6.2708 2.6424 -0.5797 0
M  V30 25 C 5.0845 1.9175 -0.4411 0
M  V30 26 C 5.1368 0.5248 -0.4577 0
M  V30 27 H 8.4718 0.0914 -0.8952 0
M  V30 28 H 8.3890 2.5533 -0.8416 0
M  V30 29 H 6.2523 3.7206 -0.6032 0
M  V30 30 H 4.2425 -0.0597 -0.3134 0
M  V30 31 C 3.7940 2.5972 -0.2947 0
M  V30 32 C 3.6665 3.8191 0.3740 0
M  V30 33 C 2.4178 4.3849 0.5311 0
M  V30 34 N 1.3091 3.7941 0.0762 0
M  V30 35 C 1.4103 2.6442 -0.6021 0
M  V30 36 C 2.6233 2.0298 -0.8162 0
M  V30 37 H 4.5299 4.3101 0.7924 0
M  V30 38 H 2.2834 5.3345 1.0411 0
M  V30 39 H 0.4746 2.2275 -0.9719 0
M  V30 40 H 2.6753 1.1226 -1.3962 0
M  V30 41 C 2.5372 -2.9676 5.3536 0
M  V30 42 C 2.6350 -4.1351 5.0518 0
M  V30 43 C 2.6587 -5.5246 4.8247 0
M  V30 44 C 3.0137 -6.3762 5.8555 0
M  V30 45 C 2.9323 -7.7647 5.7056 0
M  V30 46 C 2.4652 -8.3227 4.5419 0
M  V30 47 C 2.1034 -7.4962 3.4624 0
M  V30 48 C 1.5881 -8.0040 2.2484 0
M  V30 49 C 1.2839 -7.1493 1.2294 0
M  V30 50 N 1.5041 -5.8148 1.3213 0
M  V30 51 C 1.9508 -5.2992 2.4500 0
M  V30 52 C 2.2372 -6.0820 3.5793 0
M  V30 53 H 3.3435 -5.9613 6.7957 0
M  V30 54 H 3.2207 -8.3981 6.5306 0
M  V30 55 H 2.3684 -9.3925 4.4427 0
M  V30 56 H 1.4360 -9.0660 2.1417 0
M  V30 57 H 0.8508 -7.5023 0.2960 0
M  V30 58 H 2.1100 -4.2237 2.4799 0
M  V30 59 C 2.3266 -1.6234 5.7295 0
M  V30 60 C 2.5724 -1.2197 7.0458 0
M  V30 61 C 2.2858 0.0778 7.4282 0
M  V30 62 C 1.7526 0.9798 6.5231 0
M  V30 63 C 1.5074 0.5934 5.2030 0
M  V30 64 C 1.8088 -0.7105 4.8131 0
M  V30 65 H 2.9756 -1.9238 7.7572 0
M  V30 66 H 2.4694 0.3871 8.4460 0
M  V30 67 H 1.4967 1.9728 6.8578 0
M  V30 68 H 1.6682 -1.0240 3.7911 0
M  V30 69 C 0.9259 1.5292 4.2361 0
M  V30 70 C 1.1924 2.9017 4.2746 0
M  V30 71 C 0.6575 3.7292 3.3086 0
M  V30 72 N -0.1028 3.2602 2.3149 0
M  V30 73 C -0.4020 1.9556 2.2779 0
M  V30 74 C 0.0782 1.0721 3.2179 0
M  V30 75 H 1.8331 3.3170 5.0353 0
M  V30 76 H 0.8401 4.7998 3.3117 0
M  V30 77 H -1.0471 1.6397 1.4592 0
M  V30 78 H -0.2094 0.0340 3.1800 0
M  V30 79 C -5.6741 1.1492 1.1248 0
M  V30 80 C -5.6826 2.3449 1.3089 0
M  V30 81 C -5.7713 3.7062 1.6583 0
M  V30 82 C -6.9962 4.2338 2.0262 0
M  V30 83 C -7.1055 5.5473 2.4951 0
M  V30 84 C -5.9945 6.3408 2.6355 0
M  V30 85 C -4.7296 5.8508 2.2627 0
M  V30 86 C -3.5433 6.6047 2.4088 0
M  V30 87 C -2.3515 6.0817 2.0001 0
M  V30 88 N -2.2663 4.8654 1.4072 0
M  V30 89 C -3.3454 4.1170 1.2854 0
M  V30 90 C -4.6105 4.5348 1.7279 0
M  V30 91 H -7.8789 3.6158 1.9653 0
M  V30 92 H -8.0780 5.9258 2.7702 0
M  V30 93 H -6.0768 7.3406 3.0322 0
M  V30 94 H -3.5927 7.5882 2.8479 0
M  V30 95 H -1.4151 6.6198 2.1317 0
M  V30 96 H -3.2297 3.1473 0.8074 0
M  V30 97 C -5.6429 -0.2569 1.0061 0
M  V30 98 C -6.8245 -0.9955 1.1268 0
M  V30 99 C -6.7746 -2.3769 1.0900 0
M  V30 100 C -5.5665 -3.0369 0.9404 0
M  V30 101 C -4.3785 -2.3129 0.8130 0
M  V30 102 C -4.4292 -0.9202 0.8366 0
M  V30 103 H -7.7663 -0.4847 1.2562 0
M  V30 104 H -7.6861 -2.9465 1.1899 0
M  V30 105 H -5.5495 -4.1151 0.9584 0
M  V30 106 H -3.5332 -0.3361 0.7012 0
M  V30 107 C -3.0879 -2.9932 0.6706 0
M  V30 108 C -2.9580 -4.2114 -0.0041 0
M  V30 109 C -1.7090 -4.7777 -0.1575 0
M  V30 110 N -0.6021 -4.1904 0.3065 0
M  V30 111 C -0.7061 -3.0442 0.9908 0
M  V30 112 C -1.9196 -2.4299 1.2018 0
M  V30 113 H -3.8195 -4.6994 -0.4299 0
M  V30 114 H -1.5727 -5.7246 -0.6720 0
M  V30 115 H 0.2280 -2.6305 1.3680 0
M  V30 116 H -1.9738 -1.5262 1.7868 0
M  V30 117 C -1.8044 2.5776 -4.9755 0
M  V30 118 C -1.9062 3.7444 -4.6719 0
M  V30 119 C -1.9342 5.1334 -4.4427 0
M  V30 120 C -2.2860 5.9859 -5.4739 0
M  V30 121 C -2.2087 7.3743 -5.3213 0
M  V30 122 C -1.7489 7.9314 -4.1542 0
M  V30 123 C -1.3907 7.1040 -3.0744 0
M  V30 124 C -0.8824 7.6108 -1.8571 0
M  V30 125 C -0.5808 6.7553 -0.8381 0
M  V30 126 N -0.7973 5.4204 -0.9331 0
M  V30 127 C -1.2375 4.9055 -2.0647 0
M  V30 128 C -1.5204 5.6896 -3.1941 0
M  V30 129 H -2.6100 5.5717 -6.4164 0
M  V30 130 H -2.4944 8.0084 -6.1467 0
M  V30 131 H -1.6552 9.0012 -4.0527 0
M  V30 132 H -0.7333 8.6732 -1.7478 0
M  V30 133 H -0.1529 7.1079 0.0978 0
M  V30 134 H -1.3938 3.8298 -2.0975 0
M  V30 135 C -1.5890 1.2345 -5.3524 0
M  V30 136 C -1.8224 0.8334 -6.6718 0
M  V30 137 C -1.5313 -0.4632 -7.0543 0
M  V30 138 C -1.0057 -1.3668 -6.1462 0
M  V30 139 C -0.7730 -0.9827 -4.8232 0
M  V30 140 C -1.0789 0.3199 -4.4332 0
M  V30 141 H -2.2196 1.5388 -7.3854 0
M  V30 142 H -1.7055 -0.7703 -8.0743 0
M  V30 143 H -0.7460 -2.3587 -6.4805 0
M  V30 144 H -0.9480 0.6314 -3.4093 0
M  V30 145 C -0.1988 -1.9200 -3.8532 0
M  V30 146 C -0.4634 -3.2928 -3.8964 0
M  V30 147 C 0.0650 -4.1214 -2.9279 0
M  V30 148 N 0.8170 -3.6535 -1.9275 0
M  V30 149 C 1.1141 -2.3486 -1.8853 0
M  V30 150 C 0.6400 -1.4638 -2.8271 0
M  V30 151 H -1.0975 -3.7072 -4.6631 0
M  V30 152 H -0.1162 -5.1924 -2.9343 0
M  V30 153 H 1.7520 -2.0334 -1.0606 0
M  V30 154 H 0.9253 -0.4253 -2.7848 0
M  V30 END ATOM
M  V30 BEGIN BOND
M  V30 1 3 3 4
M  V30 2 1 4 5
M  V30 3 2 5 6
M  V30 4 1 6 7
M  V30 5 2 7 8
M  V30 6 1 8 9
M  V30 7 2 9 10
M  V30 8 1 10 11
M  V30 9 2 11 12
M  V30 10 1 12 13
M  V30 11 2 13 14
M  V30 12 1 14 5
M  V30 13 1 14 9
M  V30 14 1 6 15
M  V30 15 1 7 16
M  V30 16 1 8 17
M  V30 17 1 10 18
M  V30 18 1 11 19
M  V30 19 1 13 20
M  V30 20 2 21 22
M  V30 21 1 22 23
M  V30 22 2 23 24
M  V30 23 1 24 25
M  V30 24 2 25 26
M  V30 25 1 26 21
M  V30 26 1 22 27
M  V30 27 1 23 28
M  V30 28 1 24 29
M  V30 29 1 26 30
M  V30 30 2 31 32
M  V30 31 1 32 33
M  V30 32 2 33 34
M  V30 33 1 34 35
M  V30 34 2 35 36
M  V30 35 1 36 31
M  V30 36 1 32 37
M  V30 37 1 33 38
M  V30 38 1 35 39
M  V30 39 1 36 40
M  V30 40 1 3 21
M  V30 41 1 25 31
M  V30 42 3 41 42
M  V30 43 1 42 43
M  V30 44 2 43 44
M  V30 45 1 44 45
M  V30 46 2 45 46
M  V30 47 1 46 47
M  V30 48 2 47 48
M  V30 49 1 48 49
M  V30 50 2 49 50
M  V30 51 1 50 51
M  V30 52 2 51 52
M  V30 53 1 52 43
M  V30 54 1 52 47
M  V30 55 1 44 53
M  V30 56 1 45 54
M  V30 57 1 46 55
M  V30 58 1 48 56
M  V30 59 1 49 57
M  V30 60 1 51 58
M  V30 61 2 59 60
M  V30 62 1 60 61
M  V30 63 2 61 62
M  V30 64 1 62 63
M  V30 65 2 63 64
M  V30 66 1 64 59
M  V30 67 1 60 65
M  V30 68 1 61 66
M  V30 69 1 62 67
M  V30 70 1 64 68
M  V30 71 2 69 70
M  V30 72 1 70 71
M  V30 73 2 71 72
M  V30 74 1 72 73
M  V30 75 2 73 74
M  V30 76 1 74 69
M  V30 77 1 70 75
M  V30 78 1 71 76
M  V30 79 1 73 77
M  V30 80 1 74 78
M  V30 81 1 41 59
M  V30 82 1 63 69
M  V30 83 3 79 80
M  V30 84 1 80 81
M  V30 85 2 81 82
M  V30 86 1 82 83
M  V30 87 2 83 84
M  V30 88 1 84 85
M  V30 89 2 85 86
M  V30 90 1 86 87
M  V30 91 2 87 88
M  V30 92 1 88 89
M  V30 93 2 89 90
M  V30 94 1 90 81
M  V30 95 1 90 85
M  V30 96 1 82 91
M  V30 97 1 83 92
M  V30 98 1 84 93
M  V30 99 1 86 94
M  V30 100 1 87 95
M  V30 101 1 89 96
M  V30 102 2 97 98
M  V30 103 1 98 99
M  V30 104 2 99 100
M  V30 105 1 100 101
M  V30 106 2 101 102
M  V30 107 1 102 97
M  V30 108 1 98 103
M  V30 109 1 99 104
M  V30 110 1 100 105
M  V30 111 1 102 106
M  V30 112 2 107 108
M  V30 113 1 108 109
M  V30 114 2 109 110
M  V30 115 1 110 111
M  V30 116 2 111 112
M  V30 117 1 112 107
M  V30 118 1 108 113
M  V30 119 1 109 114
M  V30 120 1 111 115
M  V30 121 1 112 116
M  V30 122 1 79 97
M  V30 123 1 101 107
M  V30 124 3 117 118
M  V30 125 1 118 119
M  V30 126 2 119 120
M  V30 127 1 120 121
M  V30 128 2 121 122
M  V30 129 1 122 123
M  V30 130 2 123 124
M  V30 131 1 124 125
M  V30 132 2 125 126
M  V30 133 1 126 127
M  V30 134 2 127 128
M  V30 135 1 128 119
M  V30 136 1 128 123
M  V30 137 1 120 129
M  V30 138 1 121 130
M  V30 139 1 122 131
M  V30 140 1 124 132
M  V30 141 1 125 133
M  V30 142 1 127 134
M  V30 143 2 135 136
M  V30 144 1 136 137
M  V30 145 2 137 138
M  V30 146 1 138 139
M  V30 147 2 139 140
M  V30 148 1 140 135
M  V30 149 1 136 141
M  V30 150 1 137 142
M  V30 151 1 138 143
M  V30 152 1 140 144
M  V30 153 2 145 146
M  V30 154 1 146 147
M  V30 155 2 147 148
M  V30 156 1 148 149
M  V30 157 2 149 150
M  V30 158 1 150 145
M  V30 159 1 146 151
M  V30 160 1 147 152
M  V30 161 1 149 153
M  V30 162 1 150 154
M  V30 163 1 117 135
M  V30 164 1 139 145
M  V30 165 9 34 1
M  V30 166 9 72 1
M  V30 167 9 88 1
M  V30 168 9 126 1
M  V30 169 9 12 2
M  V30 170 9 50 2
M  V30 171 9 110 2
M  V30 172 9 148 2
M  V30 END BOND
M  V30 END CTAB
M  END

$$$$
