
     RDKit          3D

  0  0  0  0  0  0  0  0  0  0999 V3000
M  V30 BEGIN CTAB
M  V30 COUNTS 154 172 0 0 0
M  V30 BEGIN ATOM
M  V30 1 Pd 2.2363 4.3065 -0.3921 0 CHG=2
M  V30 2 Pd -1.5843 -4.1771 -0.0755 0 CHG=2
M  V30 3 C -5.9188 0.1350 -0.0627 0
M  V30 4 C -6.2235 -1.0308 0.0448 0
M  V30 5 C -6.6634 -2.3446 0.2969 0
M  V30 6 C -8.0126 -2.5839 0.4869 0
M  V30 7 C -8.4764 -3.8504 0.8577 0
M  V30 8 C -7.6020 -4.8856 1.0770 0
M  V30 9 C -6.2220 -4.6919 0.8845 0
M  V30 10 C -5.2666 -5.7061 1.1208 0
M  V30 11 C -3.9451 -5.4622 0.8860 0
M  V30 12 N -3.5111 -4.2804 0.3828 0
M  V30 13 C -4.3672 -3.2975 0.1831 0
M  V30 14 C -5.7398 -3.4229 0.4494 0
M  V30 15 H -8.7167 -1.7754 0.3623 0
M  V30 16 H -9.5365 -4.0007 0.9941 0
M  V30 17 H -7.9593 -5.8512 1.3989 0
M  V30 18 H -5.5938 -6.6649 1.4899 0
M  V30 19 H -3.1800 -6.2078 1.0921 0
M  V30 20 H -3.9744 -2.3660 -0.2175 0
M  V30 21 C -5.5527 1.4980 -0.0902 0
M  V30 22 C -6.5398 2.4882 -0.0510 0
M  V30 23 C -6.1712 3.8197 0.0033 0
M  V30 24 C -4.8352 4.1831 0.0248 0
M  V30 25 C -3.8378 3.2058 -0.0195 0
M  V30 26 C -4.2082 1.8638 -0.0875 0
M  V30 27 H -7.5819 2.2080 -0.0550 0
M  V30 28 H -6.9335 4.5832 0.0401 0
M  V30 29 H -4.5742 5.2260 0.1111 0
M  V30 30 H -3.4601 1.0911 -0.1626 0
M  V30 31 C -2.4183 3.5695 0.0196 0
M  V30 32 C -1.9341 4.7466 -0.5604 0
M  V30 33 C -0.5796 5.0098 -0.5431 0
M  V30 34 N 0.3003 4.1638 0.0002 0
M  V30 35 C -0.1432 3.0502 0.5967 0
M  V30 36 C -1.4813 2.7299 0.6373 0
M  V30 37 H -2.6044 5.4373 -1.0453 0
M  V30 38 H -0.1704 5.9160 -0.9801 0
M  V30 39 H 0.6199 2.4162 1.0458 0
M  V30 40 H -1.8099 1.8436 1.1555 0
M  V30 41 C -1.7792 -1.9704 -5.7554 0
M  V30 42 C -2.1771 -3.0910 -5.5330 0
M  V30 43 C -2.5450 -4.4426 -5.3889 0
M  V30 44 C -2.9554 -5.1579 -6.4997 0
M  V30 45 C -3.2121 -6.5307 -6.4202 0
M  V30 46 C -3.0315 -7.2155 -5.2445 0
M  V30 47 C -2.6263 -6.5276 -4.0860 0
M  V30 48 C -2.3939 -7.1762 -2.8522 0
M  V30 49 C -2.0305 -6.4457 -1.7587 0
M  V30 50 N -1.9273 -5.0946 -1.7994 0
M  V30 51 C -2.1021 -4.4568 -2.9405 0
M  V30 52 C -2.4184 -5.1184 -4.1373 0
M  V30 53 H -3.0635 -4.6506 -7.4461 0
M  V30 54 H -3.5336 -7.0554 -7.3069 0
M  V30 55 H -3.1943 -8.2807 -5.1955 0
M  V30 56 H -2.5024 -8.2471 -2.7891 0
M  V30 57 H -1.8076 -6.9167 -0.8038 0
M  V30 58 H -2.0068 -3.3734 -2.9274 0
M  V30 59 C -1.2227 -0.7022 -6.0287 0
M  V30 60 C -1.2060 -0.2146 -7.3394 0
M  V30 61 C -0.5861 0.9907 -7.6131 0
M  V30 62 C 0.0233 1.7170 -6.6040 0
M  V30 63 C 0.0094 1.2463 -5.2886 0
M  V30 64 C -0.6271 0.0380 -5.0095 0
M  V30 65 H -1.6686 -0.7845 -8.1305 0
M  V30 66 H -0.5676 1.3633 -8.6260 0
M  V30 67 H 0.5382 2.6320 -6.8511 0
M  V30 68 H -0.6886 -0.3288 -3.9975 0
M  V30 69 C 0.6657 1.9924 -4.2109 0
M  V30 70 C 0.7261 3.3898 -4.2017 0
M  V30 71 C 1.3127 4.0415 -3.1362 0
M  V30 72 N 1.8177 3.3798 -2.0911 0
M  V30 73 C 1.8045 2.0408 -2.0942 0
M  V30 74 C 1.2547 1.3211 -3.1308 0
M  V30 75 H 0.2958 3.9648 -5.0053 0
M  V30 76 H 1.3810 5.1248 -3.0995 0
M  V30 77 H 2.2546 1.5598 -1.2270 0
M  V30 78 H 1.2909 0.2439 -3.1193 0
M  V30 79 C 6.5703 -0.0061 -0.3998 0
M  V30 80 C 6.8741 1.1594 -0.5139 0
M  V30 81 C 7.3133 2.4719 -0.7737 0
M  V30 82 C 8.6620 2.7096 -0.9704 0
M  V30 83 C 9.1250 3.9742 -1.3489 0
M  V30 84 C 8.2503 5.0088 -1.5691 0
M  V30 85 C 6.8710 4.8168 -1.3699 0
M  V30 86 C 5.9153 5.8305 -1.6065 0
M  V30 87 C 4.5945 5.5886 -1.3652 0
M  V30 88 N 4.1618 4.4091 -0.8554 0
M  V30 89 C 5.0182 3.4264 -0.6549 0
M  V30 90 C 6.3899 3.5501 -0.9272 0
M  V30 91 H 9.3660 1.9012 -0.8450 0
M  V30 92 H 10.1845 4.1231 -1.4905 0
M  V30 93 H 8.6068 5.9727 -1.8968 0
M  V30 94 H 6.2415 6.7876 -1.9809 0
M  V30 95 H 3.8292 6.3338 -1.5713 0
M  V30 96 H 4.6264 2.4972 -0.2485 0
M  V30 97 C 6.2048 -1.3689 -0.3649 0
M  V30 98 C 7.1922 -2.3590 -0.3927 0
M  V30 99 C 6.8244 -3.6911 -0.4399 0
M  V30 100 C 5.4886 -4.0550 -0.4653 0
M  V30 101 C 4.4907 -3.0778 -0.4324 0
M  V30 102 C 4.8604 -1.7353 -0.3714 0
M  V30 103 H 8.2343 -2.0786 -0.3858 0
M  V30 104 H 7.5870 -4.4546 -0.4681 0
M  V30 105 H 5.2283 -5.0985 -0.5460 0
M  V30 106 H 4.1116 -0.9624 -0.3054 0
M  V30 107 C 3.0715 -3.4421 -0.4754 0
M  V30 108 C 2.5850 -4.6152 0.1104 0
M  V30 109 C 1.2306 -4.8787 0.0893 0
M  V30 110 N 0.3526 -4.0362 -0.4629 0
M  V30 111 C 0.7988 -2.9268 -1.0653 0
M  V30 112 C 2.1370 -2.6067 -1.1027 0
M  V30 113 H 3.2533 -5.3027 0.6026 0
M  V30 114 H 0.8196 -5.7820 0.5309 0
M  V30 115 H 0.0375 -2.2959 -1.5217 0
M  V30 116 H 2.4676 -1.7242 -1.6258 0
M  V30 117 C 2.4082 2.1099 5.2948 0
M  V30 118 C 2.8101 3.2289 5.0710 0
M  V30 119 C 3.1823 4.5791 4.9251 0
M  V30 120 C 3.5897 5.2960 6.0360 0
M  V30 121 C 3.8506 6.6679 5.9542 0
M  V30 122 C 3.6773 7.3502 4.7760 0
M  V30 123 C 3.2754 6.6606 3.6176 0
M  V30 124 C 3.0499 7.3067 2.3813 0
M  V30 125 C 2.6889 6.5748 1.2880 0
M  V30 126 N 2.5816 5.2241 1.3314 0
M  V30 127 C 2.7500 4.5884 2.4746 0
M  V30 128 C 3.0632 5.2521 3.6712 0
M  V30 129 H 3.6921 4.7908 6.9842 0
M  V30 130 H 4.1696 7.1939 6.8411 0
M  V30 131 H 3.8434 8.4148 4.7251 0
M  V30 132 H 3.1619 8.3773 2.3160 0
M  V30 133 H 2.4712 7.0443 0.3311 0
M  V30 134 H 2.6516 3.5055 2.4640 0
M  V30 135 C 1.8472 0.8438 5.5684 0
M  V30 136 C 1.8188 0.3616 6.8810 0
M  V30 137 C 1.1948 -0.8417 7.1543 0
M  V30 138 C 0.5927 -1.5713 6.1431 0
M  V30 139 C 0.6183 -1.1057 4.8261 0
M  V30 140 C 1.2591 0.1003 4.5473 0
M  V30 141 H 2.2756 0.9341 7.6736 0
M  V30 142 H 1.1673 -1.2101 8.1685 0
M  V30 143 H 0.0744 -2.4844 6.3893 0
M  V30 144 H 1.3297 0.4630 3.5344 0
M  V30 145 C -0.0307 -1.8549 3.7460 0
M  V30 146 C -0.0937 -3.2522 3.7413 0
M  V30 147 C -0.6739 -3.9065 2.6740 0
M  V30 148 N -1.1703 -3.2475 1.6231 0
M  V30 149 C -1.1543 -1.9087 1.6212 0
M  V30 150 C -0.6104 -1.1863 2.6590 0
M  V30 151 H 0.3298 -3.8249 4.5501 0
M  V30 152 H -0.7441 -4.9899 2.6404 0
M  V30 153 H -1.5970 -1.4298 0.7488 0
M  V30 154 H -0.6438 -0.1091 2.6435 0
M  V30 END ATOM
M  V30 BEGIN BOND
M  V30 1 3 3 4
M  V30 2 1 4 5
M  V30 3 2 5 6
M  V30 4 1 6 7
M  V30 5 2 7 8
M  V30 6 1 8 9
M  V30 7 2 9 10
M  V30 8 1 10 11
M  V30 9 2 11 12
M  V30 10 1 12 13
M  V30 11 2 13 14
M  V30 12 1 14 5
M  V30 13 1 14 9
M  V30 14 1 6 15
M  V30 15 1 7 16
M  V30 16 1 8 17
M  V30 17 1 10 18
M  V30 18 1 11 19
M  V30 19 1 13 20
M  V30 20 2 21 22
M  V30 21 1 22 23
M  V30 22 2 23 24
M  V30 23 1 24 25
M  V30 24 2 25 26
M  V30 25 1 26 21
M  V30 26 1 22 27
M  V30 27 1 23 28
M  V30 28 1 24 29
M  V30 29 1 26 30
M  V30 30 2 31 32
M  V30 31 1 32 33
M  V30 32 2 33 34
M  V30 33 1 34 35
M  V30 34 2 35 36
M  V30 35 1 36 31
M  V30 36 1 32 37
M  V30 37 1 33 38
M  V30 38 1 35 39
M  V30 39 1 36 40
M  V30 40 1 3 21
M  V30 41 1 25 31
M  V30 42 3 41 42
M  V30 43 1 42 43
M  V30 44 2 43 44
M  V30 45 1 44 45
M  V30 46 2 45 46
M  V30 47 1 46 47
M  V30 48 2 47 48
M  V30 49 1 48 49
M  V30 50 2 49 50
M  V30 51 1 50 51
M  V30 52 2 51 52
M  V30 53 1 52 43
M  V30 54 1 52 47
M  V30 55 1 44 53
M  V30 56 1 45 54
M  V30 57 1 46 55
M  V30 58 1 48 56
M  V30 59 1 49 57
M  V30 60 1 51 58
M  V30 61 2 59 60
M  V30 62 1 60 61
M  V30 63 2 61 62
M  V30 64 1 62 63
M  V30 65 2 63 64
M  V30 66 1 64 59
M  V30 67 1 60 65
M  V30 68 1 61 66
M  V30 69 1 62 67
M  V30 70 1 64 68
M  V30 71 2 69 70
M  V30 72 1 70 71
M  V30 73 2 71 72
M  V30 74 1 72 73
M  V30 75 2 73 74
M  V30 76 1 74 69
M  V30 77 1 70 75
M  V30 78 1 71 76
M  V30 79 1 73 77
M  V30 80 1 74 78
M  V30 81 1 41 59
M  V30 82 1 63 69
M  V30 83 3 79 80
M  V30 84 1 80 81
M  V30 85 2 81 82
M  V30 86 1 82 83
M  V30 87 2 83 84
M  V30 88 1 84 85
M  V30 89 2 85 86
M  V30 90 1 86 87
M  V30 91 2 87 88
M  V30 92 1 88 89
M  V30 93 2 89 90
M  V30 94 1 90 81
M  V30 95 1 90 85
M  V30 96 1 82 91
M  V30 97 1 83 92
M  V30 98 1 84 93
M  V30 99 1 86 94
M  V30 100 1 87 95
M  V30 101 1 89 96
M  V30 102 2 97 98
M  V30 103 1 98 99
M  V30 104 2 99 100
M  V30 105 1 100 101
M  V30 106 2 101 102
M  V30 107 1 102 97
M  V30 108 1 98 103
M  V30 109 1 99 104
M  V30 110 1 100 105
M  V30 111 1 102 106
M  V30 112 2 107 108
M  V30 113 1 108 109
M  V30 114 2 109 110
M  V30 115 1 110 111
M  V30 116 2 111 112
M  V30 117 1 112 107
M  V30 118 1 108 113
M  V30 119 1 109 114
M  V30 120 1 111 115
M  V30 121 1 112 116
M  V30 122 1 79 97
M  V30 123 1 101 107
M  V30 124 3 117 118
M  V30 125 1 118 119
M  V30 126 2 119 120
M  V30 127 1 120 121
M  V30 128 2 121 122
M  V30 129 1 122 123
M  V30 130 2 123 124
M  V30 131 1 124 125
M  V30 132 2 125 126
M  V30 133 1 126 127
M  V30 134 2 127 128
M  V30 135 1 128 119
M  V30 136 1 128 123
M  V30 137 1 120 129
M  V30 138 1 121 130
M  V30 139 1 122 131
M  V30 140 1 124 132
M  V30 141 1 125 133
M  V30 142 1 127 134
M  V30 143 2 135 136
M  V30 144 1 136 137
M  V30 145 2 137 138
M  V30 146 1 138 139
M  V30 147 2 139 140
M  V30 148 1 140 135
M  V30 149 1 136 141
M  V30 150 1 137 142
M  V30 151 1 138 143
M  V30 152 1 140 144
M  V30 153 2 145 146
M  V30 154 1 146 147
M  V30 155 2 147 148
M  V30 156 1 148 149
M  V30 157 2 149 150
M  V30 158 1 150 145
M  V30 159 1 146 151
M  V30 160 1 147 152
M  V30 161 1 149 153
M  V30 162 1 150 154
M  V30 163 1 117 135
M  V30 164 1 139 145
M  V30 165 9 34 1
M  V30 166 9 72 1
M  V30 167 9 88 1
M  V30 168 9 126 1
M  V30 169 9 12 2
M  V30 170 9 50 2
M  V30 171 9 110 2
M  V30 172 9 148 2
M  V30 END BOND
M  V30 END CTAB
M  END

$$$$
