
     RDKit          3D

  0  0  0  0  0  0  0  0  0  0999 V3000
M  V30 BEGIN CTAB
M  V30 COUNTS 154 172 0 0 0
M  V30 BEGIN ATOM
M  V30 1 Pd -2.0869 -1.0743 -4.0201 0 CHG=2
M  V30 2 Pd 2.0879 1.0660 4.0209 0 CHG=2
M  V30 3 C -0.8733 5.9216 1.7765 0
M  V30 4 C -0.2117 6.0276 2.7838 0
M  V30 5 C 0.6276 6.2759 3.8870 0
M  V30 6 C 0.7015 7.5548 4.4092 0
M  V30 7 C 1.6108 7.8689 5.4247 0
M  V30 8 C 2.4807 6.9244 5.9098 0
M  V30 9 C 2.4338 5.6076 5.4170 0
M  V30 10 C 3.3193 4.5958 5.8519 0
M  V30 11 C 3.2013 3.3306 5.3555 0
M  V30 12 N 2.2223 2.9903 4.4815 0
M  V30 13 C 1.3993 3.9140 4.0248 0
M  V30 14 C 1.4726 5.2578 4.4241 0
M  V30 15 H 0.0576 8.3260 4.0149 0
M  V30 16 H 1.6381 8.8769 5.8099 0
M  V30 17 H 3.2059 7.1789 6.6667 0
M  V30 18 H 4.0850 4.8370 6.5718 0
M  V30 19 H 3.8892 2.5373 5.6407 0
M  V30 20 H 0.6323 3.5970 3.3223 0
M  V30 21 C -1.5634 5.8171 0.5495 0
M  V30 22 C -2.2119 6.9349 0.0146 0
M  V30 23 C -2.8168 6.8464 -1.2256 0
M  V30 24 C -2.7827 5.6644 -1.9460 0
M  V30 25 C -2.1436 4.5376 -1.4224 0
M  V30 26 C -1.5449 4.6220 -0.1666 0
M  V30 27 H -2.2296 7.8613 0.5678 0
M  V30 28 H -3.3115 7.7114 -1.6408 0
M  V30 29 H -3.2244 5.6338 -2.9295 0
M  V30 30 H -1.0793 3.7574 0.2786 0
M  V30 31 C -2.0820 3.2824 -2.1770 0
M  V30 32 C -3.1146 2.8716 -3.0263 0
M  V30 33 C -3.0278 1.6529 -3.6675 0
M  V30 34 N -1.9880 0.8322 -3.4931 0
M  V30 35 C -0.9690 1.2212 -2.7166 0
M  V30 36 C -0.9747 2.4312 -2.0604 0
M  V30 37 H -3.9905 3.4844 -3.1640 0
M  V30 38 H -3.8092 1.3052 -4.3370 0
M  V30 39 H -0.1385 0.5211 -2.6375 0
M  V30 40 H -0.1236 2.7305 -1.4703 0
M  V30 41 C -3.8435 -0.0131 4.9284 0
M  V30 42 C -3.1250 0.2223 5.8729 0
M  V30 43 C -2.3442 0.3646 7.0360 0
M  V30 44 C -2.9528 0.2951 8.2764 0
M  V30 45 C -2.1970 0.3102 9.4535 0
M  V30 46 C -0.8260 0.3605 9.4113 0
M  V30 47 C -0.1640 0.4440 8.1727 0
M  V30 48 C 1.2443 0.4692 8.0573 0
M  V30 49 C 1.8230 0.5806 6.8268 0
M  V30 50 N 1.0870 0.7170 5.6966 0
M  V30 51 C -0.2292 0.6629 5.7596 0
M  V30 52 C -0.9232 0.4895 6.9672 0
M  V30 53 H -4.0272 0.2116 8.3354 0
M  V30 54 H -2.7065 0.2573 10.4035 0
M  V30 55 H -0.2444 0.3344 10.3194 0
M  V30 56 H 1.8490 0.3953 8.9468 0
M  V30 57 H 2.9032 0.5653 6.6987 0
M  V30 58 H -0.7794 0.7738 4.8279 0
M  V30 59 C -4.6580 -0.3853 3.8372 0
M  V30 60 C -6.0055 -0.6962 4.0456 0
M  V30 61 C -6.7769 -1.1396 2.9872 0
M  V30 62 C -6.2277 -1.2846 1.7245 0
M  V30 63 C -4.8847 -0.9719 1.4991 0
M  V30 64 C -4.1098 -0.5119 2.5625 0
M  V30 65 H -6.4335 -0.5968 5.0313 0
M  V30 66 H -7.8152 -1.3858 3.1500 0
M  V30 67 H -6.8390 -1.6743 0.9259 0
M  V30 68 H -3.0821 -0.2245 2.4085 0
M  V30 69 C -4.2815 -1.1373 0.1733 0
M  V30 70 C -5.0072 -0.9378 -1.0056 0
M  V30 71 C -4.3749 -1.0584 -2.2261 0
M  V30 72 N -3.0740 -1.3467 -2.3254 0
M  V30 73 C -2.3668 -1.5781 -1.2122 0
M  V30 74 C -2.9332 -1.4960 0.0397 0
M  V30 75 H -6.0492 -0.6646 -0.9711 0
M  V30 76 H -4.9095 -0.9152 -3.1606 0
M  V30 77 H -1.3187 -1.8342 -1.3604 0
M  V30 78 H -2.3453 -1.7220 0.9144 0
M  V30 79 C 0.8786 -5.9280 -1.7776 0
M  V30 80 C 0.2117 -6.0351 -2.7812 0
M  V30 81 C -0.6335 -6.2853 -3.8795 0
M  V30 82 C -0.7121 -7.5660 -4.3971 0
M  V30 83 C -1.6270 -7.8820 -5.4071 0
M  V30 84 C -2.4973 -6.9375 -5.8912 0
M  V30 85 C -2.4457 -5.6191 -5.4032 0
M  V30 86 C -3.3313 -4.6071 -5.8375 0
M  V30 87 C -3.2089 -3.3405 -5.3459 0
M  V30 88 N -2.2253 -2.9990 -4.4774 0
M  V30 89 C -1.4018 -3.9227 -4.0214 0
M  V30 90 C -1.4792 -5.2676 -4.4161 0
M  V30 91 H -0.0677 -8.3369 -4.0032 0
M  V30 92 H -1.6579 -8.8911 -5.7885 0
M  V30 93 H -3.2267 -7.1932 -6.6437 0
M  V30 94 H -4.1007 -4.8493 -6.5531 0
M  V30 95 H -3.8965 -2.5470 -5.6308 0
M  V30 96 H -0.6309 -3.6045 -3.3237 0
M  V30 97 C 1.5749 -5.8219 -0.5544 0
M  V30 98 C 2.2329 -6.9367 -0.0250 0
M  V30 99 C 2.8442 -6.8469 1.2121 0
M  V30 100 C 2.8071 -5.6662 1.9347 0
M  V30 101 C 2.1586 -4.5425 1.4167 0
M  V30 102 C 1.5536 -4.6281 0.1640 0
M  V30 103 H 2.2529 -7.8621 -0.5798 0
M  V30 104 H 3.3461 -7.7096 1.6231 0
M  V30 105 H 3.2539 -5.6349 2.9158 0
M  V30 106 H 1.0802 -3.7655 -0.2769 0
M  V30 107 C 2.0940 -3.2887 2.1735 0
M  V30 108 C 3.1290 -2.8734 3.0175 0
M  V30 109 C 3.0393 -1.6558 3.6607 0
M  V30 110 N 1.9941 -0.8403 3.4928 0
M  V30 111 C 0.9729 -1.2342 2.7217 0
M  V30 112 C 0.9813 -2.4434 2.0642 0
M  V30 113 H 4.0089 -3.4815 3.1497 0
M  V30 114 H 3.8226 -1.3046 4.3262 0
M  V30 115 H 0.1382 -0.5386 2.6480 0
M  V30 116 H 0.1285 -2.7468 1.4789 0
M  V30 117 C 3.8413 0.0302 -4.9322 0
M  V30 118 C 3.1231 -0.2096 -5.8759 0
M  V30 119 C 2.3422 -0.3567 -7.0384 0
M  V30 120 C 2.9496 -0.2839 -8.2793 0
M  V30 121 C 2.1931 -0.3040 -9.4558 0
M  V30 122 C 0.8225 -0.3623 -9.4126 0
M  V30 123 C 0.1619 -0.4491 -8.1736 0
M  V30 124 C -1.2460 -0.4820 -8.0571 0
M  V30 125 C -1.8234 -0.5959 -6.8263 0
M  V30 126 N -1.0861 -0.7276 -5.6964 0
M  V30 127 C 0.2298 -0.6664 -5.7602 0
M  V30 128 C 0.9221 -0.4898 -6.9685 0
M  V30 129 H 4.0235 -0.1943 -8.3390 0
M  V30 130 H 2.7017 -0.2484 -10.4062 0
M  V30 131 H 0.2401 -0.3399 -10.3203 0
M  V30 132 H -1.8520 -0.4120 -8.9464 0
M  V30 133 H -2.9036 -0.5863 -6.6976 0
M  V30 134 H 0.7813 -0.7735 -4.8291 0
M  V30 135 C 4.6542 0.4072 -3.8416 0
M  V30 136 C 5.9986 0.7306 -4.0517 0
M  V30 137 C 6.7680 1.1781 -2.9935 0
M  V30 138 C 6.2199 1.3150 -1.7293 0
M  V30 139 C 4.8801 0.9900 -1.5025 0
M  V30 140 C 4.1074 0.5256 -2.5655 0
M  V30 141 H 6.4256 0.6376 -5.0385 0
M  V30 142 H 7.8037 1.4338 -3.1576 0
M  V30 143 H 6.8290 1.7080 -0.9309 0
M  V30 144 H 3.0825 0.2287 -2.4105 0
M  V30 145 C 4.2776 1.1473 -0.1753 0
M  V30 146 C 5.0067 0.9515 1.0022 0
M  V30 147 C 4.3752 1.0651 2.2238 0
M  V30 148 N 3.0724 1.3431 2.3255 0
M  V30 149 C 2.3616 1.5705 1.2138 0
M  V30 150 C 2.9266 1.4947 -0.0391 0
M  V30 151 H 6.0508 0.6866 0.9655 0
M  V30 152 H 4.9123 0.9246 3.1574 0
M  V30 153 H 1.3115 1.8177 1.3639 0
M  V30 154 H 2.3358 1.7169 -0.9127 0
M  V30 END ATOM
M  V30 BEGIN BOND
M  V30 1 3 3 4
M  V30 2 1 4 5
M  V30 3 2 5 6
M  V30 4 1 6 7
M  V30 5 2 7 8
M  V30 6 1 8 9
M  V30 7 2 9 10
M  V30 8 1 10 11
M  V30 9 2 11 12
M  V30 10 1 12 13
M  V30 11 2 13 14
M  V30 12 1 14 5
M  V30 13 1 14 9
M  V30 14 1 6 15
M  V30 15 1 7 16
M  V30 16 1 8 17
M  V30 17 1 10 18
M  V30 18 1 11 19
M  V30 19 1 13 20
M  V30 20 2 21 22
M  V30 21 1 22 23
M  V30 22 2 23 24
M  V30 23 1 24 25
M  V30 24 2 25 26
M  V30 25 1 26 21
M  V30 26 1 22 27
M  V30 27 1 23 28
M  V30 28 1 24 29
M  V30 29 1 26 30
M  V30 30 2 31 32
M  V30 31 1 32 33
M  V30 32 2 33 34
M  V30 33 1 34 35
M  V30 34 2 35 36
M  V30 35 1 36 31
M  V30 36 1 32 37
M  V30 37 1 33 38
M  V30 38 1 35 39
M  V30 39 1 36 40
M  V30 40 1 3 21
M  V30 41 1 25 31
M  V30 42 3 41 42
M  V30 43 1 42 43
M  V30 44 2 43 44
M  V30 45 1 44 45
M  V30 46 2 45 46
M  V30 47 1 46 47
M  V30 48 2 47 48
M  V30 49 1 48 49
M  V30 50 2 49 50
M  V30 51 1 50 51
M  V30 52 2 51 52
M  V30 53 1 52 43
M  V30 54 1 52 47
M  V30 55 1 44 53
M  V30 56 1 45 54
M  V30 57 1 46 55
M  V30 58 1 48 56
M  V30 59 1 49 57
M  V30 60 1 51 58
M  V30 61 2 59 60
M  V30 62 1 60 61
M  V30 63 2 61 62
M  V30 64 1 62 63
M  V30 65 2 63 64
M  V30 66 1 64 59
M  V30 67 1 60 65
M  V30 68 1 61 66
M  V30 69 1 62 67
M  V30 70 1 64 68
M  V30 71 2 69 70
M  V30 72 1 70 71
M  V30 73 2 71 72
M  V30 74 1 72 73
M  V30 75 2 73 74
M  V30 76 1 74 69
M  V30 77 1 70 75
M  V30 78 1 71 76
M  V30 79 1 73 77
M  V30 80 1 74 78
M  V30 81 1 41 59
M  V30 82 1 63 69
M  V30 83 3 79 80
M  V30 84 1 80 81
M  V30 85 2 81 82
M  V30 86 1 82 83
M  V30 87 2 83 84
M  V30 88 1 84 85
M  V30 89 2 85 86
M  V30 90 1 86 87
M  V30 91 2 87 88
M  V30 92 1 88 89
M  V30 93 2 89 90
M  V30 94 1 90 81
M  V30 95 1 90 85
M  V30 96 1 82 91
M  V30 97 1 83 92
M  V30 98 1 84 93
M  V30 99 1 86 94
M  V30 100 1 87 95
M  V30 101 1 89 96
M  V30 102 2 97 98
M  V30 103 1 98 99
M  V30 104 2 99 100
M  V30 105 1 100 101
M  V30 106 2 101 102
M  V30 107 1 102 97
M  V30 108 1 98 103
M  V30 109 1 99 104
M  V30 110 1 100 105
M  V30 111 1 102 106
M  V30 112 2 107 108
M  V30 113 1 108 109
M  V30 114 2 109 110
M  V30 115 1 110 111
M  V30 116 2 111 112
M  V30 117 1 112 107
M  V30 118 1 108 113
M  V30 119 1 109 114
M  V30 120 1 111 115
M  V30 121 1 112 116
M  V30 122 1 79 97
M  V30 123 1 101 107
M  V30 124 3 117 118
M  V30 125 1 118 119
M  V30 126 2 119 120
M  V30 127 1 120 121
M  V30 128 2 121 122
M  V30 129 1 122 123
M  V30 130 2 123 124
M  V30 131 1 124 125
M  V30 132 2 125 126
M  V30 133 1 126 127
M  V30 134 2 127 128
M  V30 135 1 128 119
M  V30 136 1 128 123
M  V30 137 1 120 129
M  V30 138 1 121 130
M  V30 139 1 122 131
M  V30 140 1 124 132
M  V30 141 1 125 133
M  V30 142 1 127 134
M  V30 143 2 135 136
M  V30 144 1 136 137
M  V30 145 2 137 138
M  V30 146 1 138 139
M  V30 147 2 139 140
M  V30 148 1 140 135
M  V30 149 1 136 141
M  V30 150 1 137 142
M  V30 151 1 138 143
M  V30 152 1 140 144
M  V30 153 2 145 146
M  V30 154 1 146 147
M  V30 155 2 147 148
M  V30 156 1 148 149
M  V30 157 2 149 150
M  V30 158 1 150 145
M  V30 159 1 146 151
M  V30 160 1 147 152
M  V30 161 1 149 153
M  V30 162 1 150 154
M  V30 163 1 117 135
M  V30 164 1 139 145
M  V30 165 9 34 1
M  V30 166 9 72 1
M  V30 167 9 88 1
M  V30 168 9 126 1
M  V30 169 9 12 2
M  V30 170 9 50 2
M  V30 171 9 110 2
M  V30 172 9 148 2
M  V30 END BOND
M  V30 END CTAB
M  END

$$$$
