
     RDKit          3D

  0  0  0  0  0  0  0  0  0  0999 V3000
M  V30 BEGIN CTAB
M  V30 COUNTS 154 172 0 0 0
M  V30 BEGIN ATOM
M  V30 1 Pd 1.1732 3.4299 -3.5866 0 CHG=2
M  V30 2 Pd -0.9333 -3.0408 2.7664 0 CHG=2
M  V30 3 C 5.1018 -2.0751 2.6001 0
M  V30 4 C 4.6452 -2.9346 3.3188 0
M  V30 5 C 4.2200 -4.0333 4.0901 0
M  V30 6 C 5.1575 -4.7836 4.7772 0
M  V30 7 C 4.7918 -5.9509 5.4557 0
M  V30 8 C 3.4967 -6.4048 5.4313 0
M  V30 9 C 2.5070 -5.6683 4.7552 0
M  V30 10 C 1.1624 -6.0943 4.6670 0
M  V30 11 C 0.2451 -5.3180 4.0214 0
M  V30 12 N 0.5692 -4.1124 3.4926 0
M  V30 13 C 1.8203 -3.6967 3.5231 0
M  V30 14 C 2.8530 -4.4457 4.1090 0
M  V30 15 H 6.1904 -4.4708 4.7759 0
M  V30 16 H 5.5500 -6.5091 5.9835 0
M  V30 17 H 3.2249 -7.3250 5.9242 0
M  V30 18 H 0.8758 -7.0349 5.1095 0
M  V30 19 H -0.7896 -5.6331 3.9032 0
M  V30 20 H 2.0354 -2.7258 3.0834 0
M  V30 21 C 5.6378 -1.1395 1.6892 0
M  V30 22 C 7.0208 -0.9415 1.6227 0
M  V30 23 C 7.5442 -0.0834 0.6731 0
M  V30 24 C 6.7140 0.5779 -0.2161 0
M  V30 25 C 5.3301 0.3948 -0.1584 0
M  V30 26 C 4.8005 -0.4598 0.8069 0
M  V30 27 H 7.6717 -1.4649 2.3060 0
M  V30 28 H 8.6122 0.0638 0.6180 0
M  V30 29 H 7.1501 1.2080 -0.9751 0
M  V30 30 H 3.7342 -0.5892 0.8997 0
M  V30 31 C 4.4361 1.0726 -1.1020 0
M  V30 32 C 4.7100 2.3497 -1.6023 0
M  V30 33 C 3.8041 2.9628 -2.4435 0
M  V30 34 N 2.6523 2.3811 -2.7902 0
M  V30 35 C 2.3866 1.1427 -2.3561 0
M  V30 36 C 3.2509 0.4597 -1.5308 0
M  V30 37 H 5.6083 2.8719 -1.3160 0
M  V30 38 H 3.9872 3.9517 -2.8534 0
M  V30 39 H 1.4459 0.7122 -2.6965 0
M  V30 40 H 3.0246 -0.5494 -1.2267 0
M  V30 41 C -0.0180 2.3549 5.4529 0
M  V30 42 C -0.3620 1.4043 6.1175 0
M  V30 43 C -0.8778 0.3885 6.9452 0
M  V30 44 C -1.1015 0.6510 8.2849 0
M  V30 45 C -1.7246 -0.2905 9.1110 0
M  V30 46 C -2.1630 -1.4901 8.6082 0
M  V30 47 C -1.9469 -1.8054 7.2542 0
M  V30 48 C -2.3983 -3.0087 6.6667 0
M  V30 49 C -2.1300 -3.2661 5.3540 0
M  V30 50 N -1.3953 -2.4194 4.5917 0
M  V30 51 C -0.9864 -1.2705 5.0940 0
M  V30 52 C -1.2605 -0.8807 6.4142 0
M  V30 53 H -0.8047 1.6042 8.6947 0
M  V30 54 H -1.8799 -0.0521 10.1521 0
M  V30 55 H -2.6764 -2.1986 9.2392 0
M  V30 56 H -2.9563 -3.7118 7.2639 0
M  V30 57 H -2.4945 -4.1645 4.8606 0
M  V30 58 H -0.4026 -0.6210 4.4458 0
M  V30 59 C 0.2855 3.4837 4.6615 0
M  V30 60 C 0.4350 4.7379 5.2620 0
M  V30 61 C 0.6502 5.8529 4.4731 0
M  V30 62 C 0.7135 5.7415 3.0944 0
M  V30 63 C 0.5725 4.4944 2.4801 0
M  V30 64 C 0.3691 3.3679 3.2755 0
M  V30 65 H 0.3731 4.8302 6.3355 0
M  V30 66 H 0.7588 6.8216 4.9366 0
M  V30 67 H 0.8380 6.6323 2.4992 0
M  V30 68 H 0.2979 2.3882 2.8312 0
M  V30 69 C 0.6179 4.3602 1.0211 0
M  V30 70 C 1.4194 5.1819 0.2218 0
M  V30 71 C 1.4611 4.9777 -1.1422 0
M  V30 72 N 0.7677 4.0012 -1.7346 0
M  V30 73 C -0.0350 3.2254 -0.9953 0
M  V30 74 C -0.1441 3.3818 0.3679 0
M  V30 75 H 2.0258 5.9561 0.6626 0
M  V30 76 H 2.0686 5.6003 -1.7925 0
M  V30 77 H -0.5935 2.4653 -1.5398 0
M  V30 78 H -0.8253 2.7637 0.9298 0
M  V30 79 C -4.8613 2.4601 -3.4232 0
M  V30 80 C -4.4048 3.3238 -4.1369 0
M  V30 81 C -3.9807 4.4273 -4.9021 0
M  V30 82 C -4.9194 5.1813 -5.5836 0
M  V30 83 C -4.5551 6.3530 -6.2554 0
M  V30 84 C -3.2601 6.8072 -6.2299 0
M  V30 85 C -2.2693 6.0670 -5.5597 0
M  V30 86 C -0.9247 6.4928 -5.4709 0
M  V30 87 C -0.0062 5.7131 -4.8310 0
M  V30 88 N -0.3292 4.5044 -4.3086 0
M  V30 89 C -1.5803 4.0884 -4.3400 0
M  V30 90 C -2.6140 4.8404 -4.9203 0
M  V30 91 H -5.9522 4.8681 -5.5827 0
M  V30 92 H -5.3142 6.9141 -6.7788 0
M  V30 93 H -2.9892 7.7304 -6.7177 0
M  V30 94 H -0.6389 7.4360 -5.9084 0
M  V30 95 H 1.0285 6.0280 -4.7124 0
M  V30 96 H -1.7943 3.1148 -3.9057 0
M  V30 97 C -5.3969 1.5192 -2.5177 0
M  V30 98 C -6.7790 1.3132 -2.4590 0
M  V30 99 C -7.3025 0.4497 -1.5143 0
M  V30 100 C -6.4732 -0.2090 -0.6222 0
M  V30 101 C -5.0902 -0.0178 -0.6721 0
M  V30 102 C -4.5604 0.8422 -1.6326 0
M  V30 103 H -7.4294 1.8345 -3.1444 0
M  V30 104 H -8.3699 0.2962 -1.4652 0
M  V30 105 H -6.9098 -0.8434 0.1329 0
M  V30 106 H -3.4944 0.9781 -1.7192 0
M  V30 107 C -4.1971 -0.6928 0.2742 0
M  V30 108 C -4.4663 -1.9728 0.7697 0
M  V30 109 C -3.5609 -2.5831 1.6135 0
M  V30 110 N -2.4138 -1.9962 1.9671 0
M  V30 111 C -2.1533 -0.7550 1.5379 0
M  V30 112 C -3.0174 -0.0744 0.7105 0
M  V30 113 H -5.3603 -2.4992 0.4778 0
M  V30 114 H -3.7404 -3.5744 2.0198 0
M  V30 115 H -1.2167 -0.3202 1.8839 0
M  V30 116 H -2.7954 0.9368 0.4107 0
M  V30 117 C 0.2828 -1.9730 -6.2718 0
M  V30 118 C 0.6226 -1.0209 -6.9365 0
M  V30 119 C 1.1340 -0.0032 -7.7644 0
M  V30 120 C 1.3612 -0.2658 -9.1036 0
M  V30 121 C 1.9800 0.6782 -9.9299 0
M  V30 122 C 2.4109 1.8808 -9.4277 0
M  V30 123 C 2.1912 2.1962 -8.0744 0
M  V30 124 C 2.6354 3.4024 -7.4875 0
M  V30 125 C 2.3643 3.6596 -6.1753 0
M  V30 126 N 1.6334 2.8097 -5.4129 0
M  V30 127 C 1.2311 1.6582 -5.9146 0
M  V30 128 C 1.5089 1.2687 -7.2342 0
M  V30 129 H 1.0702 -1.2212 -9.5128 0
M  V30 130 H 2.1381 0.4395 -10.9705 0
M  V30 131 H 2.9211 2.5914 -10.0588 0
M  V30 132 H 3.1903 4.1081 -8.0847 0
M  V30 133 H 2.7236 4.5604 -5.6825 0
M  V30 134 H 0.6502 1.0060 -5.2667 0
M  V30 135 C -0.0158 -3.1025 -5.4795 0
M  V30 136 C -0.1526 -4.3591 -6.0782 0
M  V30 137 C -0.3634 -5.4740 -5.2880 0
M  V30 138 C -0.4346 -5.3604 -3.9099 0
M  V30 139 C -0.3062 -4.1110 -3.2976 0
M  V30 140 C -0.1075 -2.9847 -4.0942 0
M  V30 141 H -0.0844 -4.4531 -7.1511 0
M  V30 142 H -0.4622 -6.4445 -5.7502 0
M  V30 143 H -0.5554 -6.2507 -3.3135 0
M  V30 144 H -0.0460 -2.0034 -3.6516 0
M  V30 145 C -0.3593 -3.9743 -1.8390 0
M  V30 146 C -1.1583 -4.8001 -1.0415 0
M  V30 147 C -1.2068 -4.5939 0.3220 0
M  V30 148 N -0.5225 -3.6117 0.9154 0
M  V30 149 C 0.2775 -2.8313 0.1779 0
M  V30 150 C 0.3929 -2.9892 -1.1846 0
M  V30 151 H -1.7575 -5.5793 -1.4834 0
M  V30 152 H -1.8126 -5.2195 0.9711 0
M  V30 153 H 0.8283 -2.0661 0.7232 0
M  V30 154 H 1.0715 -2.3670 -1.7450 0
M  V30 END ATOM
M  V30 BEGIN BOND
M  V30 1 3 3 4
M  V30 2 1 4 5
M  V30 3 2 5 6
M  V30 4 1 6 7
M  V30 5 2 7 8
M  V30 6 1 8 9
M  V30 7 2 9 10
M  V30 8 1 10 11
M  V30 9 2 11 12
M  V30 10 1 12 13
M  V30 11 2 13 14
M  V30 12 1 14 5
M  V30 13 1 14 9
M  V30 14 1 6 15
M  V30 15 1 7 16
M  V30 16 1 8 17
M  V30 17 1 10 18
M  V30 18 1 11 19
M  V30 19 1 13 20
M  V30 20 2 21 22
M  V30 21 1 22 23
M  V30 22 2 23 24
M  V30 23 1 24 25
M  V30 24 2 25 26
M  V30 25 1 26 21
M  V30 26 1 22 27
M  V30 27 1 23 28
M  V30 28 1 24 29
M  V30 29 1 26 30
M  V30 30 2 31 32
M  V30 31 1 32 33
M  V30 32 2 33 34
M  V30 33 1 34 35
M  V30 34 2 35 36
M  V30 35 1 36 31
M  V30 36 1 32 37
M  V30 37 1 33 38
M  V30 38 1 35 39
M  V30 39 1 36 40
M  V30 40 1 3 21
M  V30 41 1 25 31
M  V30 42 3 41 42
M  V30 43 1 42 43
M  V30 44 2 43 44
M  V30 45 1 44 45
M  V30 46 2 45 46
M  V30 47 1 46 47
M  V30 48 2 47 48
M  V30 49 1 48 49
M  V30 50 2 49 50
M  V30 51 1 50 51
M  V30 52 2 51 52
M  V30 53 1 52 43
M  V30 54 1 52 47
M  V30 55 1 44 53
M  V30 56 1 45 54
M  V30 57 1 46 55
M  V30 58 1 48 56
M  V30 59 1 49 57
M  V30 60 1 51 58
M  V30 61 2 59 60
M  V30 62 1 60 61
M  V30 63 2 61 62
M  V30 64 1 62 63
M  V30 65 2 63 64
M  V30 66 1 64 59
M  V30 67 1 60 65
M  V30 68 1 61 66
M  V30 69 1 62 67
M  V30 70 1 64 68
M  V30 71 2 69 70
M  V30 72 1 70 71
M  V30 73 2 71 72
M  V30 74 1 72 73
M  V30 75 2 73 74
M  V30 76 1 74 69
M  V30 77 1 70 75
M  V30 78 1 71 76
M  V30 79 1 73 77
M  V30 80 1 74 78
M  V30 81 1 41 59
M  V30 82 1 63 69
M  V30 83 3 79 80
M  V30 84 1 80 81
M  V30 85 2 81 82
M  V30 86 1 82 83
M  V30 87 2 83 84
M  V30 88 1 84 85
M  V30 89 2 85 86
M  V30 90 1 86 87
M  V30 91 2 87 88
M  V30 92 1 88 89
M  V30 93 2 89 90
M  V30 94 1 90 81
M  V30 95 1 90 85
M  V30 96 1 82 91
M  V30 97 1 83 92
M  V30 98 1 84 93
M  V30 99 1 86 94
M  V30 100 1 87 95
M  V30 101 1 89 96
M  V30 102 2 97 98
M  V30 103 1 98 99
M  V30 104 2 99 100
M  V30 105 1 100 101
M  V30 106 2 101 102
M  V30 107 1 102 97
M  V30 108 1 98 103
M  V30 109 1 99 104
M  V30 110 1 100 105
M  V30 111 1 102 106
M  V30 112 2 107 108
M  V30 113 1 108 109
M  V30 114 2 109 110
M  V30 115 1 110 111
M  V30 116 2 111 112
M  V30 117 1 112 107
M  V30 118 1 108 113
M  V30 119 1 109 114
M  V30 120 1 111 115
M  V30 121 1 112 116
M  V30 122 1 79 97
M  V30 123 1 101 107
M  V30 124 3 117 118
M  V30 125 1 118 119
M  V30 126 2 119 120
M  V30 127 1 120 121
M  V30 128 2 121 122
M  V30 129 1 122 123
M  V30 130 2 123 124
M  V30 131 1 124 125
M  V30 132 2 125 126
M  V30 133 1 126 127
M  V30 134 2 127 128
M  V30 135 1 128 119
M  V30 136 1 128 123
M  V30 137 1 120 129
M  V30 138 1 121 130
M  V30 139 1 122 131
M  V30 140 1 124 132
M  V30 141 1 125 133
M  V30 142 1 127 134
M  V30 143 2 135 136
M  V30 144 1 136 137
M  V30 145 2 137 138
M  V30 146 1 138 139
M  V30 147 2 139 140
M  V30 148 1 140 135
M  V30 149 1 136 141
M  V30 150 1 137 142
M  V30 151 1 138 143
M  V30 152 1 140 144
M  V30 153 2 145 146
M  V30 154 1 146 147
M  V30 155 2 147 148
M  V30 156 1 148 149
M  V30 157 2 149 150
M  V30 158 1 150 145
M  V30 159 1 146 151
M  V30 160 1 147 152
M  V30 161 1 149 153
M  V30 162 1 150 154
M  V30 163 1 117 135
M  V30 164 1 139 145
M  V30 165 9 34 1
M  V30 166 9 72 1
M  V30 167 9 88 1
M  V30 168 9 126 1
M  V30 169 9 12 2
M  V30 170 9 50 2
M  V30 171 9 110 2
M  V30 172 9 148 2
M  V30 END BOND
M  V30 END CTAB
M  END

$$$$
