
     RDKit          3D

  0  0  0  0  0  0  0  0  0  0999 V3000
M  V30 BEGIN CTAB
M  V30 COUNTS 154 172 0 0 0
M  V30 BEGIN ATOM
M  V30 1 Pd 0.1740 4.5835 -0.8520 0 CHG=2
M  V30 2 Pd 0.1816 -4.6446 0.3768 0 CHG=2
M  V30 3 C 5.8252 -2.3840 1.0273 0
M  V30 4 C 5.6405 -3.5784 1.0833 0
M  V30 5 C 5.5423 -4.9826 1.0417 0
M  V30 6 C 6.6860 -5.7475 1.1863 0
M  V30 7 C 6.6497 -7.1372 1.0313 0
M  V30 8 C 5.4835 -7.7798 0.6977 0
M  V30 9 C 4.2933 -7.0441 0.5520 0
M  V30 10 C 3.0663 -7.6394 0.1817 0
M  V30 11 C 1.9413 -6.8736 0.0866 0
M  V30 12 N 1.9457 -5.5507 0.3834 0
M  V30 13 C 3.0778 -4.9518 0.6978 0
M  V30 14 C 4.3025 -5.6347 0.7649 0
M  V30 15 H 7.6240 -5.2614 1.4065 0
M  V30 16 H 7.5614 -7.7018 1.1544 0
M  V30 17 H 5.4663 -8.8471 0.5424 0
M  V30 18 H 3.0334 -8.6967 -0.0269 0
M  V30 19 H 0.9889 -7.2925 -0.2315 0
M  V30 20 H 3.0351 -3.8891 0.9239 0
M  V30 21 C 6.0498 -1.0001 0.8640 0
M  V30 22 C 7.3448 -0.4838 0.9764 0
M  V30 23 C 7.5691 0.8593 0.7358 0
M  V30 24 C 6.5260 1.6974 0.3795 0
M  V30 25 C 5.2261 1.1975 0.2688 0
M  V30 26 C 4.9967 -0.1534 0.5239 0
M  V30 27 H 8.1621 -1.1367 1.2417 0
M  V30 28 H 8.5699 1.2557 0.8162 0
M  V30 29 H 6.7343 2.7315 0.1549 0
M  V30 30 H 3.9980 -0.5575 0.4845 0
M  V30 31 C 4.1116 2.0651 -0.1238 0
M  V30 32 C 4.0554 3.4154 0.2362 0
M  V30 33 C 2.9541 4.1703 -0.1124 0
M  V30 34 N 1.9184 3.6489 -0.7762 0
M  V30 35 C 1.9672 2.3692 -1.1667 0
M  V30 36 C 3.0409 1.5592 -0.8735 0
M  V30 37 H 4.8505 3.8663 0.8073 0
M  V30 38 H 2.8799 5.2223 0.1473 0
M  V30 39 H 1.1057 2.0113 -1.7287 0
M  V30 40 H 3.0656 0.5429 -1.2320 0
M  V30 41 C 0.2385 -1.7847 5.7608 0
M  V30 42 C 0.1764 -2.9924 5.7233 0
M  V30 43 C -0.0210 -4.3857 5.7729 0
M  V30 44 C -0.1456 -5.0117 7.0002 0
M  V30 45 C -0.4628 -6.3713 7.0885 0
M  V30 46 C -0.6933 -7.1170 5.9594 0
M  V30 47 C -0.5667 -6.5257 4.6892 0
M  V30 48 C -0.8184 -7.2280 3.4890 0
M  V30 49 C -0.6486 -6.6033 2.2880 0
M  V30 50 N -0.1960 -5.3286 2.1992 0
M  V30 51 C 0.0164 -4.6291 3.2969 0
M  V30 52 C -0.1859 -5.1563 4.5819 0
M  V30 53 H -0.0114 -4.4373 7.9040 0
M  V30 54 H -0.5488 -6.8266 8.0633 0
M  V30 55 H -0.9743 -8.1559 6.0319 0
M  V30 56 H -1.1476 -8.2536 3.5358 0
M  V30 57 H -0.8693 -7.1023 1.3469 0
M  V30 58 H 0.3763 -3.6096 3.1784 0
M  V30 59 C 0.2100 -0.3739 5.7996 0
M  V30 60 C 0.1591 0.2900 7.0296 0
M  V30 61 C 0.0479 1.6679 7.0591 0
M  V30 62 C -0.0194 2.3968 5.8838 0
M  V30 63 C 0.0368 1.7484 4.6473 0
M  V30 64 C 0.1626 0.3606 4.6165 0
M  V30 65 H 0.1980 -0.2762 7.9475 0
M  V30 66 H 0.0019 2.1792 8.0086 0
M  V30 67 H -0.1504 3.4661 5.9341 0
M  V30 68 H 0.2493 -0.1618 3.6774 0
M  V30 69 C -0.0520 2.5021 3.3931 0
M  V30 70 C 0.4668 3.7944 3.2621 0
M  V30 71 C 0.3996 4.4374 2.0430 0
M  V30 72 N -0.1352 3.8582 0.9643 0
M  V30 73 C -0.6713 2.6361 1.0740 0
M  V30 74 C -0.6596 1.9406 2.2618 0
M  V30 75 H 0.9426 4.2838 4.0961 0
M  V30 76 H 0.7878 5.4427 1.9077 0
M  V30 77 H -1.1150 2.2293 0.1664 0
M  V30 78 H -1.1303 0.9730 2.3258 0
M  V30 79 C -5.4684 2.3217 -1.5073 0
M  V30 80 C -5.2843 3.5163 -1.5567 0
M  V30 81 C -5.1874 4.9204 -1.5074 0
M  V30 82 C -6.3324 5.6847 -1.6452 0
M  V30 83 C -6.2977 7.0736 -1.4824 0
M  V30 84 C -5.1316 7.7157 -1.1478 0
M  V30 85 C -3.9401 6.9809 -1.0089 0
M  V30 86 C -2.7129 7.5756 -0.6382 0
M  V30 87 C -1.5868 6.8108 -0.5497 0
M  V30 88 N -1.5902 5.4894 -0.8534 0
M  V30 89 C -2.7222 4.8908 -1.1688 0
M  V30 90 C -3.9479 5.5725 -1.2296 0
M  V30 91 H -7.2702 5.1985 -1.8661 0
M  V30 92 H -7.2103 7.6376 -1.6003 0
M  V30 93 H -5.1153 8.7822 -0.9865 0
M  V30 94 H -2.6808 8.6319 -0.4241 0
M  V30 95 H -0.6342 7.2292 -0.2315 0
M  V30 96 H -2.6786 3.8294 -1.4008 0
M  V30 97 C -5.6921 0.9368 -1.3514 0
M  V30 98 C -6.9855 0.4189 -1.4748 0
M  V30 99 C -7.2093 -0.9255 -1.2413 0
M  V30 100 C -6.1673 -1.7634 -0.8813 0
M  V30 101 C -4.8690 -1.2620 -0.7594 0
M  V30 102 C -4.6401 0.0903 -1.0075 0
M  V30 103 H -7.8020 1.0715 -1.7430 0
M  V30 104 H -8.2088 -1.3232 -1.3302 0
M  V30 105 H -6.3755 -2.7987 -0.6623 0
M  V30 106 H -3.6423 0.4958 -0.9593 0
M  V30 107 C -3.7557 -2.1293 -0.3630 0
M  V30 108 C -3.6948 -3.4779 -0.7285 0
M  V30 109 C -2.5944 -4.2323 -0.3762 0
M  V30 110 N -1.5635 -3.7120 0.2962 0
M  V30 111 C -1.6174 -2.4340 0.6920 0
M  V30 112 C -2.6907 -1.6248 0.3958 0
M  V30 113 H -4.4855 -3.9278 -1.3064 0
M  V30 114 H -2.5166 -5.2831 -0.6400 0
M  V30 115 H -0.7602 -2.0771 1.2610 0
M  V30 116 H -2.7196 -0.6103 0.7588 0
M  V30 117 C 0.1431 1.7230 -6.2383 0
M  V30 118 C 0.2007 2.9309 -6.2002 0
M  V30 119 C 0.3934 4.3250 -6.2490 0
M  V30 120 C 0.5213 4.9513 -7.4758 0
M  V30 121 C 0.8340 6.3120 -7.5629 0
M  V30 122 C 1.0565 7.0586 -6.4329 0
M  V30 123 C 0.9263 6.4669 -5.1631 0
M  V30 124 C 1.1702 7.1702 -3.9620 0
M  V30 125 C 0.9978 6.5450 -2.7617 0
M  V30 126 N 0.5495 5.2686 -2.6745 0
M  V30 127 C 0.3442 4.5683 -3.7731 0
M  V30 128 C 0.5500 5.0962 -5.0573 0
M  V30 129 H 0.3934 4.3762 -8.3802 0
M  V30 130 H 0.9227 6.7675 -8.5374 0
M  V30 131 H 1.3339 8.0986 -6.5042 0
M  V30 132 H 1.4960 8.1971 -4.0074 0
M  V30 133 H 1.2128 7.0450 -1.8198 0
M  V30 134 H -0.0123 3.5476 -3.6562 0
M  V30 135 C 0.1766 0.3124 -6.2767 0
M  V30 136 C 0.2405 -0.3515 -7.5060 0
M  V30 137 C 0.3561 -1.7290 -7.5344 0
M  V30 138 C 0.4150 -2.4577 -6.3585 0
M  V30 139 C 0.3460 -1.8094 -5.1227 0
M  V30 140 C 0.2156 -0.4220 -5.0932 0
M  V30 141 H 0.2081 0.2146 -8.4243 0
M  V30 142 H 0.4121 -2.2402 -8.4835 0
M  V30 143 H 0.5498 -3.5266 -6.4074 0
M  V30 144 H 0.1189 0.1003 -4.1549 0
M  V30 145 C 0.4267 -2.5626 -3.8676 0
M  V30 146 C -0.0890 -3.8565 -3.7404 0
M  V30 147 C -0.0288 -4.4993 -2.5208 0
M  V30 148 N 0.4961 -3.9183 -1.4382 0
M  V30 149 C 1.0287 -2.6944 -1.5438 0
M  V30 150 C 1.0236 -1.9989 -2.7317 0
M  V30 151 H -0.5569 -4.3474 -4.5780 0
M  V30 152 H -0.4150 -5.5057 -2.3882 0
M  V30 153 H 1.4640 -2.2858 -0.6329 0
M  V30 154 H 1.4910 -1.0296 -2.7923 0
M  V30 END ATOM
M  V30 BEGIN BOND
M  V30 1 3 3 4
M  V30 2 1 4 5
M  V30 3 2 5 6
M  V30 4 1 6 7
M  V30 5 2 7 8
M  V30 6 1 8 9
M  V30 7 2 9 10
M  V30 8 1 10 11
M  V30 9 2 11 12
M  V30 10 1 12 13
M  V30 11 2 13 14
M  V30 12 1 14 5
M  V30 13 1 14 9
M  V30 14 1 6 15
M  V30 15 1 7 16
M  V30 16 1 8 17
M  V30 17 1 10 18
M  V30 18 1 11 19
M  V30 19 1 13 20
M  V30 20 2 21 22
M  V30 21 1 22 23
M  V30 22 2 23 24
M  V30 23 1 24 25
M  V30 24 2 25 26
M  V30 25 1 26 21
M  V30 26 1 22 27
M  V30 27 1 23 28
M  V30 28 1 24 29
M  V30 29 1 26 30
M  V30 30 2 31 32
M  V30 31 1 32 33
M  V30 32 2 33 34
M  V30 33 1 34 35
M  V30 34 2 35 36
M  V30 35 1 36 31
M  V30 36 1 32 37
M  V30 37 1 33 38
M  V30 38 1 35 39
M  V30 39 1 36 40
M  V30 40 1 3 21
M  V30 41 1 25 31
M  V30 42 3 41 42
M  V30 43 1 42 43
M  V30 44 2 43 44
M  V30 45 1 44 45
M  V30 46 2 45 46
M  V30 47 1 46 47
M  V30 48 2 47 48
M  V30 49 1 48 49
M  V30 50 2 49 50
M  V30 51 1 50 51
M  V30 52 2 51 52
M  V30 53 1 52 43
M  V30 54 1 52 47
M  V30 55 1 44 53
M  V30 56 1 45 54
M  V30 57 1 46 55
M  V30 58 1 48 56
M  V30 59 1 49 57
M  V30 60 1 51 58
M  V30 61 2 59 60
M  V30 62 1 60 61
M  V30 63 2 61 62
M  V30 64 1 62 63
M  V30 65 2 63 64
M  V30 66 1 64 59
M  V30 67 1 60 65
M  V30 68 1 61 66
M  V30 69 1 62 67
M  V30 70 1 64 68
M  V30 71 2 69 70
M  V30 72 1 70 71
M  V30 73 2 71 72
M  V30 74 1 72 73
M  V30 75 2 73 74
M  V30 76 1 74 69
M  V30 77 1 70 75
M  V30 78 1 71 76
M  V30 79 1 73 77
M  V30 80 1 74 78
M  V30 81 1 41 59
M  V30 82 1 63 69
M  V30 83 3 79 80
M  V30 84 1 80 81
M  V30 85 2 81 82
M  V30 86 1 82 83
M  V30 87 2 83 84
M  V30 88 1 84 85
M  V30 89 2 85 86
M  V30 90 1 86 87
M  V30 91 2 87 88
M  V30 92 1 88 89
M  V30 93 2 89 90
M  V30 94 1 90 81
M  V30 95 1 90 85
M  V30 96 1 82 91
M  V30 97 1 83 92
M  V30 98 1 84 93
M  V30 99 1 86 94
M  V30 100 1 87 95
M  V30 101 1 89 96
M  V30 102 2 97 98
M  V30 103 1 98 99
M  V30 104 2 99 100
M  V30 105 1 100 101
M  V30 106 2 101 102
M  V30 107 1 102 97
M  V30 108 1 98 103
M  V30 109 1 99 104
M  V30 110 1 100 105
M  V30 111 1 102 106
M  V30 112 2 107 108
M  V30 113 1 108 109
M  V30 114 2 109 110
M  V30 115 1 110 111
M  V30 116 2 111 112
M  V30 117 1 112 107
M  V30 118 1 108 113
M  V30 119 1 109 114
M  V30 120 1 111 115
M  V30 121 1 112 116
M  V30 122 1 79 97
M  V30 123 1 101 107
M  V30 124 3 117 118
M  V30 125 1 118 119
M  V30 126 2 119 120
M  V30 127 1 120 121
M  V30 128 2 121 122
M  V30 129 1 122 123
M  V30 130 2 123 124
M  V30 131 1 124 125
M  V30 132 2 125 126
M  V30 133 1 126 127
M  V30 134 2 127 128
M  V30 135 1 128 119
M  V30 136 1 128 123
M  V30 137 1 120 129
M  V30 138 1 121 130
M  V30 139 1 122 131
M  V30 140 1 124 132
M  V30 141 1 125 133
M  V30 142 1 127 134
M  V30 143 2 135 136
M  V30 144 1 136 137
M  V30 145 2 137 138
M  V30 146 1 138 139
M  V30 147 2 139 140
M  V30 148 1 140 135
M  V30 149 1 136 141
M  V30 150 1 137 142
M  V30 151 1 138 143
M  V30 152 1 140 144
M  V30 153 2 145 146
M  V30 154 1 146 147
M  V30 155 2 147 148
M  V30 156 1 148 149
M  V30 157 2 149 150
M  V30 158 1 150 145
M  V30 159 1 146 151
M  V30 160 1 147 152
M  V30 161 1 149 153
M  V30 162 1 150 154
M  V30 163 1 117 135
M  V30 164 1 139 145
M  V30 165 9 34 1
M  V30 166 9 72 1
M  V30 167 9 88 1
M  V30 168 9 126 1
M  V30 169 9 12 2
M  V30 170 9 50 2
M  V30 171 9 110 2
M  V30 172 9 148 2
M  V30 END BOND
M  V30 END CTAB
M  END

$$$$
