
     RDKit          3D

  0  0  0  0  0  0  0  0  0  0999 V3000
M  V30 BEGIN CTAB
M  V30 COUNTS 154 172 0 0 0
M  V30 BEGIN ATOM
M  V30 1 Pd 1.9460 3.4100 -2.4942 0 CHG=2
M  V30 2 Pd -2.0885 -3.6950 1.9676 0 CHG=2
M  V30 3 C 3.8162 -3.2705 3.4963 0
M  V30 4 C 3.1431 -4.1800 3.9249 0
M  V30 5 C 2.4743 -5.3356 4.3723 0
M  V30 6 C 3.1577 -6.2601 5.1418 0
M  V30 7 C 2.5674 -7.4753 5.5046 0
M  V30 8 C 1.3037 -7.8007 5.0788 0
M  V30 9 C 0.5665 -6.8866 4.3043 0
M  V30 10 C -0.7265 -7.1707 3.8098 0
M  V30 11 C -1.4001 -6.2284 3.0892 0
M  V30 12 N -0.8875 -4.9934 2.8649 0
M  V30 13 C 0.3302 -4.7026 3.2791 0
M  V30 14 C 1.1321 -5.6198 3.9764 0
M  V30 15 H 4.1686 -6.0461 5.4535 0
M  V30 16 H 3.1299 -8.1711 6.1083 0
M  V30 17 H 0.8653 -8.7541 5.3289 0
M  V30 18 H -1.1668 -8.1354 4.0047 0
M  V30 19 H -2.3812 -6.4272 2.6626 0
M  V30 20 H 0.7025 -3.7019 3.0735 0
M  V30 21 C 4.6204 -2.2655 2.9172 0
M  V30 22 C 5.9799 -2.1871 3.2366 0
M  V30 23 C 6.7782 -1.2515 2.6046 0
M  V30 24 C 6.2472 -0.3951 1.6550 0
M  V30 25 C 4.8899 -0.4575 1.3294 0
M  V30 26 C 4.0816 -1.3913 1.9753 0
M  V30 27 H 6.3996 -2.8614 3.9671 0
M  V30 28 H 7.8287 -1.1960 2.8468 0
M  V30 29 H 6.8997 0.2961 1.1452 0
M  V30 30 H 3.0236 -1.4349 1.7725 0
M  V30 31 C 4.3127 0.4289 0.3145 0
M  V30 32 C 4.7730 1.7347 0.1164 0
M  V30 33 C 4.1539 2.5436 -0.8145 0
M  V30 34 N 3.1071 2.1261 -1.5322 0
M  V30 35 C 2.6741 0.8672 -1.3888 0
M  V30 36 C 3.2538 -0.0044 -0.4950 0
M  V30 37 H 5.5886 2.1256 0.7026 0
M  V30 38 H 4.4884 3.5607 -0.9967 0
M  V30 39 H 1.8366 0.5784 -2.0222 0
M  V30 40 H 2.9047 -1.0221 -0.4280 0
M  V30 41 C -1.6466 1.1469 5.6458 0
M  V30 42 C -2.2014 0.1453 6.0363 0
M  V30 43 C -2.9682 -0.9285 6.5281 0
M  V30 44 C -3.5249 -0.8440 7.7917 0
M  V30 45 C -4.3908 -1.8347 8.2671 0
M  V30 46 C -4.7403 -2.9035 7.4799 0
M  V30 47 C -4.1898 -3.0372 6.1921 0
M  V30 48 C -4.5296 -4.0961 5.3203 0
M  V30 49 C -3.9369 -4.1835 4.0945 0
M  V30 50 N -2.9851 -3.3058 3.6927 0
M  V30 51 C -2.6665 -2.2842 4.4636 0
M  V30 52 C -3.2601 -2.0669 5.7168 0
M  V30 53 H -3.2996 0.0084 8.4140 0
M  V30 54 H -4.8038 -1.7369 9.2594 0
M  V30 55 H -5.4372 -3.6462 7.8353 0
M  V30 56 H -5.2604 -4.8246 5.6329 0
M  V30 57 H -4.2025 -4.9637 3.3844 0
M  V30 58 H -1.9001 -1.6034 4.1001 0
M  V30 59 C -1.0881 2.3462 5.1533 0
M  V30 60 C -1.0400 3.4810 5.9694 0
M  V30 61 C -0.5680 4.6744 5.4546 0
M  V30 62 C -0.1480 4.7590 4.1380 0
M  V30 63 C -0.1839 3.6325 3.3121 0
M  V30 64 C -0.6468 2.4258 3.8341 0
M  V30 65 H -1.3790 3.4217 6.9923 0
M  V30 66 H -0.5374 5.5515 6.0830 0
M  V30 67 H 0.1742 5.7117 3.7482 0
M  V30 68 H -0.6471 1.5316 3.2317 0
M  V30 69 C 0.2390 3.7081 1.9105 0
M  V30 70 C 1.2637 4.5605 1.4864 0
M  V30 71 C 1.6545 4.5536 0.1630 0
M  V30 72 N 1.0943 3.7409 -0.7375 0
M  V30 73 C 0.0867 2.9425 -0.3633 0
M  V30 74 C -0.3711 2.9086 0.9344 0
M  V30 75 H 1.7700 5.2038 2.1872 0
M  V30 76 H 2.4428 5.2060 -0.2010 0
M  V30 77 H -0.3454 2.3237 -1.1485 0
M  V30 78 H -1.2069 2.2803 1.1961 0
M  V30 79 C -3.9575 2.9818 -4.0262 0
M  V30 80 C -3.2857 3.8947 -4.4493 0
M  V30 81 C -2.6193 5.0543 -4.8904 0
M  V30 82 C -3.3052 5.9818 -5.6542 0
M  V30 83 C -2.7178 7.2004 -6.0103 0
M  V30 84 C -1.4545 7.5259 -5.5834 0
M  V30 85 C -0.7148 6.6089 -4.8148 0
M  V30 86 C 0.5780 6.8927 -4.3197 0
M  V30 87 C 1.2542 5.9478 -3.6048 0
M  V30 88 N 0.7441 4.7106 -3.3869 0
M  V30 89 C -0.4734 4.4196 -3.8020 0
M  V30 90 C -1.2775 5.3391 -4.4937 0
M  V30 91 H -4.3158 5.7674 -5.9664 0
M  V30 92 H -3.2821 7.8985 -6.6095 0
M  V30 93 H -1.0182 8.4815 -5.8284 0
M  V30 94 H 1.0164 7.8593 -4.5097 0
M  V30 95 H 2.2351 6.1463 -3.1780 0
M  V30 96 H -0.8433 3.4169 -3.6018 0
M  V30 97 C -4.7602 1.9723 -3.4529 0
M  V30 98 C -6.1171 1.8870 -3.7808 0
M  V30 99 C -6.9146 0.9469 -3.1545 0
M  V30 100 C -6.3850 0.0927 -2.2019 0
M  V30 101 C -5.0303 0.1620 -1.8677 0
M  V30 102 C -4.2228 1.1004 -2.5082 0
M  V30 103 H -6.5359 2.5595 -4.5136 0
M  V30 104 H -7.9633 0.8860 -3.4032 0
M  V30 105 H -7.0371 -0.6021 -1.6967 0
M  V30 106 H -3.1664 1.1495 -2.2984 0
M  V30 107 C -4.4545 -0.7220 -0.8501 0
M  V30 108 C -4.9091 -2.0303 -0.6557 0
M  V30 109 C -4.2911 -2.8368 0.2779 0
M  V30 110 N -3.2503 -2.4147 1.0019 0
M  V30 111 C -2.8235 -1.1534 0.8623 0
M  V30 112 C -3.4027 -0.2838 -0.0338 0
M  V30 113 H -5.7193 -2.4249 -1.2469 0
M  V30 114 H -4.6213 -3.8560 0.4572 0
M  V30 115 H -1.9913 -0.8607 1.5008 0
M  V30 116 H -3.0588 0.7358 -0.0975 0
M  V30 117 C 1.5274 -1.4416 -6.1659 0
M  V30 118 C 2.0783 -0.4381 -6.5574 0
M  V30 119 C 2.8410 0.6381 -7.0503 0
M  V30 120 C 3.4008 0.5531 -8.3125 0
M  V30 121 C 4.2628 1.5467 -8.7886 0
M  V30 122 C 4.6054 2.6191 -8.0035 0
M  V30 123 C 4.0517 2.7534 -6.7172 0
M  V30 124 C 4.3848 3.8160 -5.8473 0
M  V30 125 C 3.7896 3.9034 -4.6228 0
M  V30 126 N 2.8412 3.0222 -4.2205 0
M  V30 127 C 2.5286 1.9974 -4.9896 0
M  V30 128 C 3.1257 1.7799 -6.2412 0
M  V30 129 H 3.1809 -0.3021 -8.9331 0
M  V30 130 H 4.6784 1.4482 -9.7799 0
M  V30 131 H 5.2994 3.3643 -8.3594 0
M  V30 132 H 5.1127 4.5473 -6.1604 0
M  V30 133 H 4.0505 4.6865 -3.9142 0
M  V30 134 H 1.7650 1.3138 -4.6260 0
M  V30 135 C 0.9734 -2.6421 -5.6715 0
M  V30 136 C 0.9369 -3.7806 -6.4830 0
M  V30 137 C 0.4689 -4.9745 -5.9659 0
M  V30 138 C 0.0413 -5.0562 -4.6514 0
M  V30 139 C 0.0659 -3.9260 -3.8303 0
M  V30 140 C 0.5246 -2.7188 -4.3546 0
M  V30 141 H 1.2817 -3.7236 -7.5041 0
M  V30 142 H 0.4471 -5.8544 -6.5908 0
M  V30 143 H -0.2774 -6.0089 -4.2596 0
M  V30 144 H 0.5160 -1.8220 -3.7562 0
M  V30 145 C -0.3643 -3.9983 -2.4307 0
M  V30 146 C -1.3863 -4.8547 -2.0083 0
M  V30 147 C -1.7833 -4.8452 -0.6868 0
M  V30 148 N -1.2319 -4.0262 0.2134 0
M  V30 149 C -0.2272 -3.2233 -0.1590 0
M  V30 150 C 0.2365 -3.1915 -1.4547 0
M  V30 151 H -1.8856 -5.5035 -2.7092 0
M  V30 152 H -2.5699 -5.5005 -0.3241 0
M  V30 153 H 0.1975 -2.5989 0.6258 0
M  V30 154 H 1.0696 -2.5592 -1.7151 0
M  V30 END ATOM
M  V30 BEGIN BOND
M  V30 1 3 3 4
M  V30 2 1 4 5
M  V30 3 2 5 6
M  V30 4 1 6 7
M  V30 5 2 7 8
M  V30 6 1 8 9
M  V30 7 2 9 10
M  V30 8 1 10 11
M  V30 9 2 11 12
M  V30 10 1 12 13
M  V30 11 2 13 14
M  V30 12 1 14 5
M  V30 13 1 14 9
M  V30 14 1 6 15
M  V30 15 1 7 16
M  V30 16 1 8 17
M  V30 17 1 10 18
M  V30 18 1 11 19
M  V30 19 1 13 20
M  V30 20 2 21 22
M  V30 21 1 22 23
M  V30 22 2 23 24
M  V30 23 1 24 25
M  V30 24 2 25 26
M  V30 25 1 26 21
M  V30 26 1 22 27
M  V30 27 1 23 28
M  V30 28 1 24 29
M  V30 29 1 26 30
M  V30 30 2 31 32
M  V30 31 1 32 33
M  V30 32 2 33 34
M  V30 33 1 34 35
M  V30 34 2 35 36
M  V30 35 1 36 31
M  V30 36 1 32 37
M  V30 37 1 33 38
M  V30 38 1 35 39
M  V30 39 1 36 40
M  V30 40 1 3 21
M  V30 41 1 25 31
M  V30 42 3 41 42
M  V30 43 1 42 43
M  V30 44 2 43 44
M  V30 45 1 44 45
M  V30 46 2 45 46
M  V30 47 1 46 47
M  V30 48 2 47 48
M  V30 49 1 48 49
M  V30 50 2 49 50
M  V30 51 1 50 51
M  V30 52 2 51 52
M  V30 53 1 52 43
M  V30 54 1 52 47
M  V30 55 1 44 53
M  V30 56 1 45 54
M  V30 57 1 46 55
M  V30 58 1 48 56
M  V30 59 1 49 57
M  V30 60 1 51 58
M  V30 61 2 59 60
M  V30 62 1 60 61
M  V30 63 2 61 62
M  V30 64 1 62 63
M  V30 65 2 63 64
M  V30 66 1 64 59
M  V30 67 1 60 65
M  V30 68 1 61 66
M  V30 69 1 62 67
M  V30 70 1 64 68
M  V30 71 2 69 70
M  V30 72 1 70 71
M  V30 73 2 71 72
M  V30 74 1 72 73
M  V30 75 2 73 74
M  V30 76 1 74 69
M  V30 77 1 70 75
M  V30 78 1 71 76
M  V30 79 1 73 77
M  V30 80 1 74 78
M  V30 81 1 41 59
M  V30 82 1 63 69
M  V30 83 3 79 80
M  V30 84 1 80 81
M  V30 85 2 81 82
M  V30 86 1 82 83
M  V30 87 2 83 84
M  V30 88 1 84 85
M  V30 89 2 85 86
M  V30 90 1 86 87
M  V30 91 2 87 88
M  V30 92 1 88 89
M  V30 93 2 89 90
M  V30 94 1 90 81
M  V30 95 1 90 85
M  V30 96 1 82 91
M  V30 97 1 83 92
M  V30 98 1 84 93
M  V30 99 1 86 94
M  V30 100 1 87 95
M  V30 101 1 89 96
M  V30 102 2 97 98
M  V30 103 1 98 99
M  V30 104 2 99 100
M  V30 105 1 100 101
M  V30 106 2 101 102
M  V30 107 1 102 97
M  V30 108 1 98 103
M  V30 109 1 99 104
M  V30 110 1 100 105
M  V30 111 1 102 106
M  V30 112 2 107 108
M  V30 113 1 108 109
M  V30 114 2 109 110
M  V30 115 1 110 111
M  V30 116 2 111 112
M  V30 117 1 112 107
M  V30 118 1 108 113
M  V30 119 1 109 114
M  V30 120 1 111 115
M  V30 121 1 112 116
M  V30 122 1 79 97
M  V30 123 1 101 107
M  V30 124 3 117 118
M  V30 125 1 118 119
M  V30 126 2 119 120
M  V30 127 1 120 121
M  V30 128 2 121 122
M  V30 129 1 122 123
M  V30 130 2 123 124
M  V30 131 1 124 125
M  V30 132 2 125 126
M  V30 133 1 126 127
M  V30 134 2 127 128
M  V30 135 1 128 119
M  V30 136 1 128 123
M  V30 137 1 120 129
M  V30 138 1 121 130
M  V30 139 1 122 131
M  V30 140 1 124 132
M  V30 141 1 125 133
M  V30 142 1 127 134
M  V30 143 2 135 136
M  V30 144 1 136 137
M  V30 145 2 137 138
M  V30 146 1 138 139
M  V30 147 2 139 140
M  V30 148 1 140 135
M  V30 149 1 136 141
M  V30 150 1 137 142
M  V30 151 1 138 143
M  V30 152 1 140 144
M  V30 153 2 145 146
M  V30 154 1 146 147
M  V30 155 2 147 148
M  V30 156 1 148 149
M  V30 157 2 149 150
M  V30 158 1 150 145
M  V30 159 1 146 151
M  V30 160 1 147 152
M  V30 161 1 149 153
M  V30 162 1 150 154
M  V30 163 1 117 135
M  V30 164 1 139 145
M  V30 165 9 34 1
M  V30 166 9 72 1
M  V30 167 9 88 1
M  V30 168 9 126 1
M  V30 169 9 12 2
M  V30 170 9 50 2
M  V30 171 9 110 2
M  V30 172 9 148 2
M  V30 END BOND
M  V30 END CTAB
M  END

$$$$
