
     RDKit          3D

  0  0  0  0  0  0  0  0  0  0999 V3000
M  V30 BEGIN CTAB
M  V30 COUNTS 154 172 0 0 0
M  V30 BEGIN ATOM
M  V30 1 Pd 3.9603 2.6322 -0.0699 0 CHG=2
M  V30 2 Pd -3.3319 -3.1333 0.4297 0 CHG=2
M  V30 3 C -5.1211 2.4518 -1.2990 0
M  V30 4 C -5.9422 1.5834 -1.1116 0
M  V30 5 C -6.9739 0.6767 -0.8007 0
M  V30 6 C -8.2916 1.0748 -0.9382 0
M  V30 7 C -9.3426 0.2484 -0.5268 0
M  V30 8 C -9.0957 -0.9691 0.0571 0
M  V30 9 C -7.7717 -1.4206 0.2067 0
M  V30 10 C -7.4475 -2.6493 0.8250 0
M  V30 11 C -6.1442 -3.0428 0.9118 0
M  V30 12 N -5.1356 -2.3104 0.3782 0
M  V30 13 C -5.3941 -1.1415 -0.1749 0
M  V30 14 C -6.6927 -0.6154 -0.2616 0
M  V30 15 H -8.5108 2.0458 -1.3552 0
M  V30 16 H -10.3584 0.5911 -0.6524 0
M  V30 17 H -9.9068 -1.5881 0.4072 0
M  V30 18 H -8.2374 -3.2634 1.2270 0
M  V30 19 H -5.8566 -3.9643 1.4137 0
M  V30 20 H -4.5544 -0.5864 -0.5860 0
M  V30 21 C -4.1692 3.4869 -1.4216 0
M  V30 22 C -4.5790 4.7747 -1.7819 0
M  V30 23 C -3.6534 5.8012 -1.8214 0
M  V30 24 C -2.3261 5.5687 -1.5028 0
M  V30 25 C -1.9005 4.2865 -1.1466 0
M  V30 26 C -2.8301 3.2484 -1.1192 0
M  V30 27 H -5.6151 4.9620 -2.0186 0
M  V30 28 H -3.9716 6.7963 -2.0931 0
M  V30 29 H -1.6326 6.3948 -1.4992 0
M  V30 30 H -2.5220 2.2418 -0.8864 0
M  V30 31 C -0.5032 4.0239 -0.7896 0
M  V30 32 C 0.5599 4.7126 -1.3827 0
M  V30 33 C 1.8579 4.3837 -1.0493 0
M  V30 34 N 2.1417 3.4084 -0.1813 0
M  V30 35 C 1.1405 2.7625 0.4293 0
M  V30 36 C -0.1795 3.0486 0.1635 0
M  V30 37 H 0.3772 5.4788 -2.1183 0
M  V30 38 H 2.7065 4.9010 -1.4874 0
M  V30 39 H 1.4363 1.9987 1.1471 0
M  V30 40 H -0.9625 2.5350 0.6974 0
M  V30 41 C -1.5168 -2.5006 -5.3561 0
M  V30 42 C -2.4179 -3.2627 -5.0897 0
M  V30 43 C -3.3859 -4.2586 -4.8578 0
M  V30 44 C -3.8839 -4.9847 -5.9248 0
M  V30 45 C -4.7539 -6.0614 -5.7225 0
M  V30 46 C -5.1125 -6.4505 -4.4561 0
M  V30 47 C -4.6399 -5.7346 -3.3410 0
M  V30 48 C -4.9467 -6.0995 -2.0106 0
M  V30 49 C -4.4796 -5.3447 -0.9744 0
M  V30 50 N -3.7600 -4.2138 -1.1768 0
M  V30 51 C -3.4239 -3.8598 -2.4020 0
M  V30 52 C -3.8005 -4.5989 -3.5342 0
M  V30 53 H -3.5830 -4.7256 -6.9284 0
M  V30 54 H -5.1247 -6.6029 -6.5793 0
M  V30 55 H -5.7537 -7.3041 -4.3017 0
M  V30 56 H -5.5456 -6.9771 -1.8278 0
M  V30 57 H -4.6653 -5.6178 0.0621 0
M  V30 58 H -2.8436 -2.9471 -2.5173 0
M  V30 59 C -0.4010 -1.6875 -5.6503 0
M  V30 60 C 0.0616 -1.5861 -6.9663 0
M  V30 61 C 1.2037 -0.8548 -7.2355 0
M  V30 62 C 1.8974 -0.2266 -6.2150 0
M  V30 63 C 1.4442 -0.3132 -4.8962 0
M  V30 64 C 0.2853 -1.0390 -4.6258 0
M  V30 65 H -0.4693 -2.0854 -7.7622 0
M  V30 66 H 1.5641 -0.7824 -8.2504 0
M  V30 67 H 2.8097 0.3007 -6.4453 0
M  V30 68 H -0.1097 -1.0886 -3.6238 0
M  V30 69 C 2.1762 0.3296 -3.8008 0
M  V30 70 C 2.8715 1.5309 -3.9732 0
M  V30 71 C 3.5012 2.1169 -2.8943 0
M  V30 72 N 3.4579 1.5812 -1.6711 0
M  V30 73 C 2.8297 0.4129 -1.4887 0
M  V30 74 C 2.1957 -0.2410 -2.5208 0
M  V30 75 H 2.8986 2.0183 -4.9341 0
M  V30 76 H 4.0539 3.0465 -2.9941 0
M  V30 77 H 2.8522 0.0151 -0.4751 0
M  V30 78 H 1.7286 -1.1971 -2.3485 0
M  V30 79 C 5.7480 -2.9518 1.6635 0
M  V30 80 C 6.5693 -2.0849 1.4696 0
M  V30 81 C 7.6011 -1.1810 1.1514 0
M  V30 82 C 8.9188 -1.5819 1.2826 0
M  V30 83 C 9.9695 -0.7587 0.8639 0
M  V30 84 C 9.7221 0.4582 0.2792 0
M  V30 85 C 8.3985 0.9125 0.1359 0
M  V30 86 C 8.0738 2.1409 -0.4827 0
M  V30 87 C 6.7709 2.5373 -0.5635 0
M  V30 88 N 5.7635 1.8081 -0.0235 0
M  V30 89 C 6.0222 0.6395 0.5304 0
M  V30 90 C 7.3201 0.1107 0.6114 0
M  V30 91 H 9.1379 -2.5526 1.7003 0
M  V30 92 H 10.9849 -1.1037 0.9846 0
M  V30 93 H 10.5328 1.0746 -0.0765 0
M  V30 94 H 8.8629 2.7526 -0.8899 0
M  V30 95 H 6.4830 3.4587 -1.0653 0
M  V30 96 H 5.1833 0.0872 0.9470 0
M  V30 97 C 4.7954 -3.9852 1.7933 0
M  V30 98 C 5.2037 -5.2704 2.1645 0
M  V30 99 C 4.2772 -6.2959 2.2111 0
M  V30 100 C 2.9505 -6.0649 1.8889 0
M  V30 101 C 2.5263 -4.7854 1.5218 0
M  V30 102 C 3.4568 -3.7483 1.4874 0
M  V30 103 H 6.2393 -5.4567 2.4040 0
M  V30 104 H 4.5943 -7.2890 2.4911 0
M  V30 105 H 2.2565 -6.8905 1.8910 0
M  V30 106 H 3.1497 -2.7434 1.2457 0
M  V30 107 C 1.1297 -4.5243 1.1611 0
M  V30 108 C 0.0654 -5.2072 1.7587 0
M  V30 109 C -1.2320 -4.8795 1.4217 0
M  V30 110 N -1.5141 -3.9103 0.5461 0
M  V30 111 C -0.5115 -3.2706 -0.0688 0
M  V30 112 C 0.8079 -3.5562 0.2001 0
M  V30 113 H 0.2467 -5.9680 2.5003 0
M  V30 114 H -2.0815 -5.3924 1.8632 0
M  V30 115 H -0.8059 -2.5120 -0.7926 0
M  V30 116 H 1.5917 -3.0478 -0.3374 0
M  V30 117 C 2.1287 2.0196 5.7150 0
M  V30 118 C 3.0327 2.7783 5.4486 0
M  V30 119 C 4.0041 3.7709 5.2163 0
M  V30 120 C 4.5002 4.4997 6.2824 0
M  V30 121 C 5.3738 5.5731 6.0792 0
M  V30 122 C 5.7381 5.9564 4.8126 0
M  V30 123 C 5.2675 5.2377 3.6986 0
M  V30 124 C 5.5796 5.5969 2.3680 0
M  V30 125 C 5.1140 4.8399 1.3329 0
M  V30 126 N 4.3906 3.7117 1.5367 0
M  V30 127 C 4.0494 3.3628 2.7620 0
M  V30 128 C 4.4243 4.1050 3.8929 0
M  V30 129 H 4.1950 4.2451 7.2859 0
M  V30 130 H 5.7431 6.1169 6.9353 0
M  V30 131 H 6.3823 6.8076 4.6573 0
M  V30 132 H 6.1818 6.4724 2.1841 0
M  V30 133 H 5.3038 5.1091 0.2961 0
M  V30 134 H 3.4662 2.4525 2.8788 0
M  V30 135 C 1.0099 1.2104 6.0081 0
M  V30 136 C 0.5392 1.1191 7.3220 0
M  V30 137 C -0.6055 0.3911 7.5895 0
M  V30 138 C -1.2940 -0.2436 6.5694 0
M  V30 139 C -0.8327 -0.1667 5.2528 0
M  V30 140 C 0.3288 0.5554 4.9842 0
M  V30 141 H 1.0660 1.6234 8.1176 0
M  V30 142 H -0.9720 0.3264 8.6027 0
M  V30 143 H -2.2082 -0.7680 6.7978 0
M  V30 144 H 0.7301 0.5974 3.9843 0
M  V30 145 C -1.5593 -0.8157 4.1574 0
M  V30 146 C -2.2575 -2.0148 4.3335 0
M  V30 147 C -2.8827 -2.6063 3.2549 0
M  V30 148 N -2.8322 -2.0780 2.0287 0
M  V30 149 C -2.2007 -0.9121 1.8424 0
M  V30 150 C -1.5708 -0.2531 2.8738 0
M  V30 151 H -2.2905 -2.4962 5.2973 0
M  V30 152 H -3.4375 -3.5344 3.3572 0
M  V30 153 H -2.2168 -0.5205 0.8262 0
M  V30 154 H -1.1006 0.7008 2.6983 0
M  V30 END ATOM
M  V30 BEGIN BOND
M  V30 1 3 3 4
M  V30 2 1 4 5
M  V30 3 2 5 6
M  V30 4 1 6 7
M  V30 5 2 7 8
M  V30 6 1 8 9
M  V30 7 2 9 10
M  V30 8 1 10 11
M  V30 9 2 11 12
M  V30 10 1 12 13
M  V30 11 2 13 14
M  V30 12 1 14 5
M  V30 13 1 14 9
M  V30 14 1 6 15
M  V30 15 1 7 16
M  V30 16 1 8 17
M  V30 17 1 10 18
M  V30 18 1 11 19
M  V30 19 1 13 20
M  V30 20 2 21 22
M  V30 21 1 22 23
M  V30 22 2 23 24
M  V30 23 1 24 25
M  V30 24 2 25 26
M  V30 25 1 26 21
M  V30 26 1 22 27
M  V30 27 1 23 28
M  V30 28 1 24 29
M  V30 29 1 26 30
M  V30 30 2 31 32
M  V30 31 1 32 33
M  V30 32 2 33 34
M  V30 33 1 34 35
M  V30 34 2 35 36
M  V30 35 1 36 31
M  V30 36 1 32 37
M  V30 37 1 33 38
M  V30 38 1 35 39
M  V30 39 1 36 40
M  V30 40 1 3 21
M  V30 41 1 25 31
M  V30 42 3 41 42
M  V30 43 1 42 43
M  V30 44 2 43 44
M  V30 45 1 44 45
M  V30 46 2 45 46
M  V30 47 1 46 47
M  V30 48 2 47 48
M  V30 49 1 48 49
M  V30 50 2 49 50
M  V30 51 1 50 51
M  V30 52 2 51 52
M  V30 53 1 52 43
M  V30 54 1 52 47
M  V30 55 1 44 53
M  V30 56 1 45 54
M  V30 57 1 46 55
M  V30 58 1 48 56
M  V30 59 1 49 57
M  V30 60 1 51 58
M  V30 61 2 59 60
M  V30 62 1 60 61
M  V30 63 2 61 62
M  V30 64 1 62 63
M  V30 65 2 63 64
M  V30 66 1 64 59
M  V30 67 1 60 65
M  V30 68 1 61 66
M  V30 69 1 62 67
M  V30 70 1 64 68
M  V30 71 2 69 70
M  V30 72 1 70 71
M  V30 73 2 71 72
M  V30 74 1 72 73
M  V30 75 2 73 74
M  V30 76 1 74 69
M  V30 77 1 70 75
M  V30 78 1 71 76
M  V30 79 1 73 77
M  V30 80 1 74 78
M  V30 81 1 41 59
M  V30 82 1 63 69
M  V30 83 3 79 80
M  V30 84 1 80 81
M  V30 85 2 81 82
M  V30 86 1 82 83
M  V30 87 2 83 84
M  V30 88 1 84 85
M  V30 89 2 85 86
M  V30 90 1 86 87
M  V30 91 2 87 88
M  V30 92 1 88 89
M  V30 93 2 89 90
M  V30 94 1 90 81
M  V30 95 1 90 85
M  V30 96 1 82 91
M  V30 97 1 83 92
M  V30 98 1 84 93
M  V30 99 1 86 94
M  V30 100 1 87 95
M  V30 101 1 89 96
M  V30 102 2 97 98
M  V30 103 1 98 99
M  V30 104 2 99 100
M  V30 105 1 100 101
M  V30 106 2 101 102
M  V30 107 1 102 97
M  V30 108 1 98 103
M  V30 109 1 99 104
M  V30 110 1 100 105
M  V30 111 1 102 106
M  V30 112 2 107 108
M  V30 113 1 108 109
M  V30 114 2 109 110
M  V30 115 1 110 111
M  V30 116 2 111 112
M  V30 117 1 112 107
M  V30 118 1 108 113
M  V30 119 1 109 114
M  V30 120 1 111 115
M  V30 121 1 112 116
M  V30 122 1 79 97
M  V30 123 1 101 107
M  V30 124 3 117 118
M  V30 125 1 118 119
M  V30 126 2 119 120
M  V30 127 1 120 121
M  V30 128 2 121 122
M  V30 129 1 122 123
M  V30 130 2 123 124
M  V30 131 1 124 125
M  V30 132 2 125 126
M  V30 133 1 126 127
M  V30 134 2 127 128
M  V30 135 1 128 119
M  V30 136 1 128 123
M  V30 137 1 120 129
M  V30 138 1 121 130
M  V30 139 1 122 131
M  V30 140 1 124 132
M  V30 141 1 125 133
M  V30 142 1 127 134
M  V30 143 2 135 136
M  V30 144 1 136 137
M  V30 145 2 137 138
M  V30 146 1 138 139
M  V30 147 2 139 140
M  V30 148 1 140 135
M  V30 149 1 136 141
M  V30 150 1 137 142
M  V30 151 1 138 143
M  V30 152 1 140 144
M  V30 153 2 145 146
M  V30 154 1 146 147
M  V30 155 2 147 148
M  V30 156 1 148 149
M  V30 157 2 149 150
M  V30 158 1 150 145
M  V30 159 1 146 151
M  V30 160 1 147 152
M  V30 161 1 149 153
M  V30 162 1 150 154
M  V30 163 1 117 135
M  V30 164 1 139 145
M  V30 165 9 34 1
M  V30 166 9 72 1
M  V30 167 9 88 1
M  V30 168 9 126 1
M  V30 169 9 12 2
M  V30 170 9 50 2
M  V30 171 9 110 2
M  V30 172 9 148 2
M  V30 END BOND
M  V30 END CTAB
M  END

$$$$
