
     RDKit          3D

  0  0  0  0  0  0  0  0  0  0999 V3000
M  V30 BEGIN CTAB
M  V30 COUNTS 154 172 0 0 0
M  V30 BEGIN ATOM
M  V30 1 Pd 2.3042 -0.4470 4.0201 0 CHG=2
M  V30 2 Pd -2.3029 0.4387 -4.0209 0 CHG=2
M  V30 3 C -0.8197 5.9292 -1.7765 0
M  V30 4 C -1.4845 5.8457 -2.7838 0
M  V30 5 C -2.3598 5.8491 -3.8870 0
M  V30 6 C -2.7888 7.0562 -4.4092 0
M  V30 7 C -3.7497 7.1031 -5.4247 0
M  V30 8 C -4.3203 5.9528 -5.9098 0
M  V30 9 C -3.9066 4.7018 -5.4170 0
M  V30 10 C -4.4734 3.4825 -5.8519 0
M  V30 11 C -4.0059 2.3010 -5.3555 0
M  V30 12 N -2.9707 2.2484 -4.4815 0
M  V30 13 C -2.4393 3.3656 -4.0248 0
M  V30 14 C -2.8859 4.6351 -4.4241 0
M  V30 15 H -2.3866 7.9768 -4.0149 0
M  V30 16 H -4.0581 8.0631 -5.8099 0
M  V30 17 H -5.0878 5.9940 -6.6667 0
M  V30 18 H -5.2760 3.4997 -6.5718 0
M  V30 19 H -4.4441 1.3468 -5.6407 0
M  V30 20 H -1.6142 3.2760 -3.3223 0
M  V30 21 C -0.1280 6.0221 -0.5495 0
M  V30 22 C 0.1816 7.2768 -0.0146 0
M  V30 23 C 0.7871 7.3612 1.2256 0
M  V30 24 C 1.0853 6.2169 1.9460 0
M  V30 25 C 0.7873 4.9563 1.4224 0
M  V30 26 C 0.1889 4.8696 0.1666 0
M  V30 27 H -0.0608 8.1711 -0.5678 0
M  V30 28 H 1.0198 8.3301 1.6408 0
M  V30 29 H 1.5179 6.3112 2.9295 0
M  V30 30 H -0.0160 3.9093 -0.2786 0
M  V30 31 C 1.0796 3.7340 2.1770 0
M  V30 32 C 2.1859 3.6288 3.0263 0
M  V30 33 C 2.4439 2.4345 3.6675 0
M  V30 34 N 1.6754 1.3555 3.4931 0
M  V30 35 C 0.5883 1.4436 2.7166 0
M  V30 36 C 0.2549 2.6068 2.0604 0
M  V30 37 H 2.8552 4.4623 3.1640 0
M  V30 38 H 3.2914 2.3195 4.3370 0
M  V30 39 H -0.0130 0.5390 2.6375 0
M  V30 40 H -0.6459 2.6559 1.4703 0
M  V30 41 C 3.6934 1.0636 -4.9284 0
M  V30 42 C 2.9377 1.0884 -5.8729 0
M  V30 43 C 2.1483 1.0064 -7.0360 0
M  V30 44 C 2.7520 1.1100 -8.2764 0
M  V30 45 C 2.0222 0.9129 -9.4535 0
M  V30 46 C 0.6920 0.5773 -9.4113 0
M  V30 47 C 0.0331 0.4721 -8.1727 0
M  V30 48 C -1.3259 0.1020 -8.0573 0
M  V30 49 C -1.9127 0.0469 -6.8268 0
M  V30 50 N -1.2443 0.3839 -5.6966 0
M  V30 51 C 0.0344 0.7005 -5.7596 0
M  V30 52 C 0.7492 0.7284 -6.9672 0
M  V30 53 H 3.8068 1.3307 -8.3354 0
M  V30 54 H 2.5262 1.0048 -10.4035 0
M  V30 55 H 0.1410 0.3894 -10.3194 0
M  V30 56 H -1.8858 -0.1383 -8.9468 0
M  V30 57 H -2.9454 -0.2702 -6.6987 0
M  V30 58 H 0.5315 0.9610 -4.8279 0
M  V30 59 C 4.5795 0.9343 -3.8372 0
M  V30 60 C 5.9602 1.0132 -4.0456 0
M  V30 61 C 6.8249 0.8035 -2.9872 0
M  V30 62 C 6.3382 0.5105 -1.7245 0
M  V30 63 C 4.9614 0.4346 -1.4991 0
M  V30 64 C 4.0887 0.6593 -2.5625 0
M  V30 65 H 6.3432 1.2284 -5.0313 0
M  V30 66 H 7.8906 0.8579 -3.1500 0
M  V30 67 H 7.0342 0.3076 -0.9259 0
M  V30 68 H 3.0216 0.6474 -2.4085 0
M  V30 69 C 4.4286 0.1070 -0.1733 0
M  V30 70 C 5.0695 0.5017 1.0056 0
M  V30 71 C 4.4962 0.2089 2.2261 0
M  V30 72 N 3.3281 -0.4321 2.3254 0
M  V30 73 C 2.7140 -0.8523 1.2122 0
M  V30 74 C 3.2347 -0.6149 -0.0397 0
M  V30 75 H 5.9933 1.0557 0.9711 0
M  V30 76 H 4.9694 0.4960 3.1606 0
M  V30 77 H 1.7795 -1.3916 1.3604 0
M  V30 78 H 2.7336 -0.9965 -0.9144 0
M  V30 79 C 0.8163 -5.9369 1.7776 0
M  V30 80 C 1.4866 -5.8530 2.7812 0
M  V30 81 C 2.3680 -5.8566 3.8795 0
M  V30 82 C 2.8021 -7.0640 4.3971 0
M  V30 83 C 3.7688 -7.1112 5.4071 0
M  V30 84 C 4.3399 -5.9608 5.8912 0
M  V30 85 C 3.9212 -4.7096 5.4032 0
M  V30 86 C 4.4880 -3.4901 5.8375 0
M  V30 87 C 4.0158 -2.3084 5.3459 0
M  V30 88 N 2.9760 -2.2560 4.4774 0
M  V30 89 C 2.4440 -3.3733 4.0214 0
M  V30 90 C 2.8949 -4.6428 4.4161 0
M  V30 91 H 2.3993 -7.9845 4.0032 0
M  V30 92 H 4.0811 -8.0713 5.7885 0
M  V30 93 H 5.1117 -6.0020 6.6437 0
M  V30 94 H 5.2944 -3.5072 6.5531 0
M  V30 95 H 4.4538 -1.3541 5.6308 0
M  V30 96 H 1.6149 -3.2837 3.3237 0
M  V30 97 C 0.1182 -6.0300 0.5544 0
M  V30 98 C -0.2013 -7.2845 0.0250 0
M  V30 99 C -0.8133 -7.3694 -1.2121 0
M  V30 100 C -1.1083 -6.2256 -1.9347 0
M  V30 101 C -0.8004 -4.9652 -1.4167 0
M  V30 102 C -0.1956 -4.8780 -0.1640 0
M  V30 103 H 0.0386 -8.1785 0.5798 0
M  V30 104 H -1.0536 -8.3382 -1.6231 0
M  V30 105 H -1.5460 -6.3206 -2.9158 0
M  V30 106 H 0.0173 -3.9174 0.2769 0
M  V30 107 C -1.0894 -3.7435 -2.1735 0
M  V30 108 C -2.1993 -3.6346 -3.0175 0
M  V30 109 C -2.4541 -2.4406 -3.6607 0
M  V30 110 N -1.6791 -1.3651 -3.4928 0
M  V30 111 C -0.5884 -1.4573 -2.7217 0
M  V30 112 C -0.2579 -2.6205 -2.0642 0
M  V30 113 H -2.8738 -4.4648 -3.1497 0
M  V30 114 H -3.3044 -2.3228 -4.3262 0
M  V30 115 H 0.0181 -0.5558 -2.6480 0
M  V30 116 H 0.6457 -2.6729 -1.4789 0
M  V30 117 C -3.6961 -1.0466 4.9322 0
M  V30 118 C -2.9395 -1.0757 5.8759 0
M  V30 119 C -2.1487 -0.9983 7.0384 0
M  V30 120 C -2.7521 -1.0985 8.2793 0
M  V30 121 C -2.0203 -0.9059 9.4558 0
M  V30 122 C -0.6882 -0.5781 9.4126 0
M  V30 123 C -0.0297 -0.4765 8.1736 0
M  V30 124 C 1.3311 -0.1139 8.0571 0
M  V30 125 C 1.9173 -0.0615 6.8263 0
M  V30 126 N 1.2463 -0.3944 5.6964 0
M  V30 127 C -0.0341 -0.7041 5.7602 0
M  V30 128 C -0.7481 -0.7284 6.9685 0
M  V30 129 H -3.8082 -1.3131 8.3390 0
M  V30 130 H -2.5241 -0.9950 10.4062 0
M  V30 131 H -0.1354 -0.3936 10.3203 0
M  V30 132 H 1.8932 0.1230 8.9464 0
M  V30 133 H 2.9516 0.2501 6.6976 0
M  V30 134 H -0.5335 -0.9614 4.8291 0
M  V30 135 C -4.5821 -0.9123 3.8416 0
M  V30 136 C -5.9633 -0.9783 4.0517 0
M  V30 137 C -6.8272 -0.7641 2.9935 0
M  V30 138 C -6.3393 -0.4792 1.7293 0
M  V30 139 C -4.9621 -0.4161 1.5025 0
M  V30 140 C -4.0903 -0.6455 2.5655 0
M  V30 141 H -6.3471 -1.1871 5.0385 0
M  V30 142 H -7.8931 -0.8086 3.1576 0
M  V30 143 H -7.0341 -0.2725 0.9309 0
M  V30 144 H -3.0233 -0.6436 2.4105 0
M  V30 145 C -4.4278 -0.0964 0.1753 0
M  V30 146 C -5.0729 -0.4885 -1.0022 0
M  V30 147 C -4.4985 -0.2026 -2.2238 0
M  V30 148 N -3.3256 0.4291 -2.3255 0
M  V30 149 C -2.7069 0.8464 -1.2138 0
M  V30 150 C -3.2281 0.6154 0.0391 0
M  V30 151 H -6.0011 -1.0351 -0.9655 0
M  V30 152 H -4.9747 -0.4879 -3.1574 0
M  V30 153 H -1.7680 1.3777 -1.3639 0
M  V30 154 H -2.7231 0.9942 0.9127 0
M  V30 END ATOM
M  V30 BEGIN BOND
M  V30 1 3 3 4
M  V30 2 1 4 5
M  V30 3 2 5 6
M  V30 4 1 6 7
M  V30 5 2 7 8
M  V30 6 1 8 9
M  V30 7 2 9 10
M  V30 8 1 10 11
M  V30 9 2 11 12
M  V30 10 1 12 13
M  V30 11 2 13 14
M  V30 12 1 14 5
M  V30 13 1 14 9
M  V30 14 1 6 15
M  V30 15 1 7 16
M  V30 16 1 8 17
M  V30 17 1 10 18
M  V30 18 1 11 19
M  V30 19 1 13 20
M  V30 20 2 21 22
M  V30 21 1 22 23
M  V30 22 2 23 24
M  V30 23 1 24 25
M  V30 24 2 25 26
M  V30 25 1 26 21
M  V30 26 1 22 27
M  V30 27 1 23 28
M  V30 28 1 24 29
M  V30 29 1 26 30
M  V30 30 2 31 32
M  V30 31 1 32 33
M  V30 32 2 33 34
M  V30 33 1 34 35
M  V30 34 2 35 36
M  V30 35 1 36 31
M  V30 36 1 32 37
M  V30 37 1 33 38
M  V30 38 1 35 39
M  V30 39 1 36 40
M  V30 40 1 3 21
M  V30 41 1 25 31
M  V30 42 3 41 42
M  V30 43 1 42 43
M  V30 44 2 43 44
M  V30 45 1 44 45
M  V30 46 2 45 46
M  V30 47 1 46 47
M  V30 48 2 47 48
M  V30 49 1 48 49
M  V30 50 2 49 50
M  V30 51 1 50 51
M  V30 52 2 51 52
M  V30 53 1 52 43
M  V30 54 1 52 47
M  V30 55 1 44 53
M  V30 56 1 45 54
M  V30 57 1 46 55
M  V30 58 1 48 56
M  V30 59 1 49 57
M  V30 60 1 51 58
M  V30 61 2 59 60
M  V30 62 1 60 61
M  V30 63 2 61 62
M  V30 64 1 62 63
M  V30 65 2 63 64
M  V30 66 1 64 59
M  V30 67 1 60 65
M  V30 68 1 61 66
M  V30 69 1 62 67
M  V30 70 1 64 68
M  V30 71 2 69 70
M  V30 72 1 70 71
M  V30 73 2 71 72
M  V30 74 1 72 73
M  V30 75 2 73 74
M  V30 76 1 74 69
M  V30 77 1 70 75
M  V30 78 1 71 76
M  V30 79 1 73 77
M  V30 80 1 74 78
M  V30 81 1 41 59
M  V30 82 1 63 69
M  V30 83 3 79 80
M  V30 84 1 80 81
M  V30 85 2 81 82
M  V30 86 1 82 83
M  V30 87 2 83 84
M  V30 88 1 84 85
M  V30 89 2 85 86
M  V30 90 1 86 87
M  V30 91 2 87 88
M  V30 92 1 88 89
M  V30 93 2 89 90
M  V30 94 1 90 81
M  V30 95 1 90 85
M  V30 96 1 82 91
M  V30 97 1 83 92
M  V30 98 1 84 93
M  V30 99 1 86 94
M  V30 100 1 87 95
M  V30 101 1 89 96
M  V30 102 2 97 98
M  V30 103 1 98 99
M  V30 104 2 99 100
M  V30 105 1 100 101
M  V30 106 2 101 102
M  V30 107 1 102 97
M  V30 108 1 98 103
M  V30 109 1 99 104
M  V30 110 1 100 105
M  V30 111 1 102 106
M  V30 112 2 107 108
M  V30 113 1 108 109
M  V30 114 2 109 110
M  V30 115 1 110 111
M  V30 116 2 111 112
M  V30 117 1 112 107
M  V30 118 1 108 113
M  V30 119 1 109 114
M  V30 120 1 111 115
M  V30 121 1 112 116
M  V30 122 1 79 97
M  V30 123 1 101 107
M  V30 124 3 117 118
M  V30 125 1 118 119
M  V30 126 2 119 120
M  V30 127 1 120 121
M  V30 128 2 121 122
M  V30 129 1 122 123
M  V30 130 2 123 124
M  V30 131 1 124 125
M  V30 132 2 125 126
M  V30 133 1 126 127
M  V30 134 2 127 128
M  V30 135 1 128 119
M  V30 136 1 128 123
M  V30 137 1 120 129
M  V30 138 1 121 130
M  V30 139 1 122 131
M  V30 140 1 124 132
M  V30 141 1 125 133
M  V30 142 1 127 134
M  V30 143 2 135 136
M  V30 144 1 136 137
M  V30 145 2 137 138
M  V30 146 1 138 139
M  V30 147 2 139 140
M  V30 148 1 140 135
M  V30 149 1 136 141
M  V30 150 1 137 142
M  V30 151 1 138 143
M  V30 152 1 140 144
M  V30 153 2 145 146
M  V30 154 1 146 147
M  V30 155 2 147 148
M  V30 156 1 148 149
M  V30 157 2 149 150
M  V30 158 1 150 145
M  V30 159 1 146 151
M  V30 160 1 147 152
M  V30 161 1 149 153
M  V30 162 1 150 154
M  V30 163 1 117 135
M  V30 164 1 139 145
M  V30 165 9 34 1
M  V30 166 9 72 1
M  V30 167 9 88 1
M  V30 168 9 126 1
M  V30 169 9 12 2
M  V30 170 9 50 2
M  V30 171 9 110 2
M  V30 172 9 148 2
M  V30 END BOND
M  V30 END CTAB
M  END

$$$$
