
     RDKit          3D

  0  0  0  0  0  0  0  0  0  0999 V3000
M  V30 BEGIN CTAB
M  V30 COUNTS 154 172 0 0 0
M  V30 BEGIN ATOM
M  V30 1 Pd 1.8019 3.6026 2.3335 0 CHG=2
M  V30 2 Pd -1.8028 -3.5970 -2.3397 0 CHG=2
M  V30 3 C -1.2321 -4.9543 3.5945 0
M  V30 4 C -1.6196 -5.7946 2.8152 0
M  V30 5 C -1.9595 -6.8681 1.9695 0
M  V30 6 C -2.1777 -8.1200 2.5163 0
M  V30 7 C -2.3985 -9.2354 1.7016 0
M  V30 8 C -2.3716 -9.1264 0.3335 0
M  V30 9 C -2.1649 -7.8711 -0.2669 0
M  V30 10 C -2.0968 -7.6946 -1.6674 0
M  V30 11 C -1.9239 -6.4451 -2.1868 0
M  V30 12 N -1.8600 -5.3427 -1.4002 0
M  V30 13 C -1.8837 -5.4700 -0.0878 0
M  V30 14 C -1.9973 -6.7151 0.5503 0
M  V30 15 H -2.1613 -8.2398 3.5887 0
M  V30 16 H -2.5682 -10.1961 2.1636 0
M  V30 17 H -2.5053 -9.9948 -0.2922 0
M  V30 18 H -2.1785 -8.5543 -2.3131 0
M  V30 19 H -1.8302 -6.2783 -3.2579 0
M  V30 20 H -1.8255 -4.5595 0.5039 0
M  V30 21 C -0.6877 -4.0019 4.4829 0
M  V30 22 C -0.5220 -4.3210 5.8345 0
M  V30 23 C 0.0858 -3.4133 6.6822 0
M  V30 24 C 0.5371 -2.1939 6.2059 0
M  V30 25 C 0.3736 -1.8585 4.8595 0
M  V30 26 C -0.2508 -2.7674 4.0070 0
M  V30 27 H -0.8612 -5.2756 6.2065 0
M  V30 28 H 0.2194 -3.6629 7.7239 0
M  V30 29 H 1.0466 -1.5216 6.8780 0
M  V30 30 H -0.4255 -2.5187 2.9725 0
M  V30 31 C 0.8597 -0.5798 4.3328 0
M  V30 32 C 0.8637 0.5895 5.1002 0
M  V30 33 C 1.2795 1.7771 4.5338 0
M  V30 34 N 1.6689 1.8563 3.2581 0
M  V30 35 C 1.7118 0.7431 2.5155 0
M  V30 36 C 1.3317 -0.4813 3.0168 0
M  V30 37 H 0.5192 0.5787 6.1214 0
M  V30 38 H 1.2993 2.7024 5.1022 0
M  V30 39 H 2.0651 0.8681 1.4930 0
M  V30 40 H 1.4108 -1.3648 2.4042 0
M  V30 41 C -6.2074 -0.5045 0.5249 0
M  V30 42 C -6.4958 -1.4410 -0.1847 0
M  V30 43 C -6.9307 -2.4342 -1.0831 0
M  V30 44 C -8.2855 -2.6725 -1.2297 0
M  V30 45 C -8.7615 -3.5633 -2.1976 0
M  V30 46 C -7.8995 -4.2021 -3.0536 0
M  V30 47 C -6.5124 -3.9994 -2.9343 0
M  V30 48 C -5.5730 -4.6024 -3.8010 0
M  V30 49 C -4.2390 -4.3872 -3.6123 0
M  V30 50 N -3.7704 -3.6428 -2.5808 0
M  V30 51 C -4.6165 -3.0354 -1.7718 0
M  V30 52 C -6.0088 -3.1405 -1.9142 0
M  V30 53 H -8.9868 -2.1500 -0.5972 0
M  V30 54 H -9.8252 -3.7265 -2.2809 0
M  V30 55 H -8.2721 -4.8597 -3.8232 0
M  V30 56 H -5.9226 -5.2254 -4.6085 0
M  V30 57 H -3.4913 -4.8051 -4.2828 0
M  V30 58 H -4.1964 -2.4461 -0.9598 0
M  V30 59 C -5.8766 0.6472 1.2710 0
M  V30 60 C -6.8868 1.3992 1.8794 0
M  V30 61 C -6.5645 2.5710 2.5389 0
M  V30 62 C -5.2529 3.0107 2.5981 0
M  V30 63 C -4.2318 2.2672 2.0008 0
M  V30 64 C -4.5540 1.0788 1.3475 0
M  V30 65 H -7.9118 1.0661 1.8239 0
M  V30 66 H -7.3454 3.1544 3.0025 0
M  V30 67 H -5.0338 3.9503 3.0802 0
M  V30 68 H -3.7816 0.4645 0.9133 0
M  V30 69 C -2.8403 2.7270 2.0373 0
M  V30 70 C -2.3196 3.4406 3.1217 0
M  V30 71 C -0.9887 3.8048 3.1243 0
M  V30 72 N -0.1634 3.4832 2.1240 0
M  V30 73 C -0.6471 2.8325 1.0584 0
M  V30 74 C -1.9678 2.4536 0.9750 0
M  V30 75 H -2.9400 3.6864 3.9679 0
M  V30 76 H -0.5533 4.3636 3.9476 0
M  V30 77 H 0.0690 2.6228 0.2650 0
M  V30 78 H -2.3337 1.9616 0.0886 0
M  V30 79 C 1.2355 4.9573 -3.6016 0
M  V30 80 C 1.6167 5.7992 -2.8210 0
M  V30 81 C 1.9490 6.8746 -1.9746 0
M  V30 82 C 2.1605 8.1279 -2.5212 0
M  V30 83 C 2.3734 9.2447 -1.7063 0
M  V30 84 C 2.3454 9.1355 -0.3384 0
M  V30 85 C 2.1455 7.8790 0.2619 0
M  V30 86 C 2.0769 7.7021 1.6623 0
M  V30 87 C 1.9106 6.4517 2.1817 0
M  V30 88 N 1.8539 5.3489 1.3950 0
M  V30 89 C 1.8785 5.4762 0.0826 0
M  V30 90 C 1.9860 6.7220 -0.5554 0
M  V30 91 H 2.1447 8.2474 -3.5937 0
M  V30 92 H 2.5377 10.2062 -2.1682 0
M  V30 93 H 2.4729 10.0047 0.2876 0
M  V30 94 H 2.1529 8.5623 2.3081 0
M  V30 95 H 1.8169 6.2846 3.2526 0
M  V30 96 H 1.8266 4.5653 -0.5089 0
M  V30 97 C 0.6980 4.0026 -4.4915 0
M  V30 98 C 0.5426 4.3177 -5.8453 0
M  V30 99 C -0.0588 3.4075 -6.6950 0
M  V30 100 C -0.5136 2.1895 -6.2186 0
M  V30 101 C -0.3606 1.8581 -4.8701 0
M  V30 102 C 0.2574 2.7693 -4.0155 0
M  V30 103 H 0.8846 5.2712 -6.2175 0
M  V30 104 H -0.1843 3.6540 -7.7384 0
M  V30 105 H -1.0181 1.5154 -6.8926 0
M  V30 106 H 0.4238 2.5237 -2.9789 0
M  V30 107 C -0.8505 0.5809 -4.3432 0
M  V30 108 C -0.8482 -0.5906 -5.1072 0
M  V30 109 C -1.2676 -1.7768 -4.5404 0
M  V30 110 N -1.6658 -1.8527 -3.2672 0
M  V30 111 C -1.7150 -0.7372 -2.5284 0
M  V30 112 C -1.3321 0.4859 -3.0304 0
M  V30 113 H -0.4964 -0.5826 -6.1259 0
M  V30 114 H -1.2827 -2.7039 -5.1062 0
M  V30 115 H -2.0756 -0.8593 -1.5081 0
M  V30 116 H -1.4165 1.3711 -2.4211 0
M  V30 117 C 6.2111 0.4941 -0.5110 0
M  V30 118 C 6.4985 1.4335 0.1953 0
M  V30 119 C 6.9324 2.4301 1.0904 0
M  V30 120 C 8.2872 2.6668 1.2401 0
M  V30 121 C 8.7618 3.5614 2.2051 0
M  V30 122 C 7.8983 4.2056 3.0554 0
M  V30 123 C 6.5113 4.0047 2.9328 0
M  V30 124 C 5.5704 4.6129 3.7940 0
M  V30 125 C 4.2366 4.3988 3.6028 0
M  V30 126 N 3.7696 3.6504 2.5734 0
M  V30 127 C 4.6170 3.0380 1.7695 0
M  V30 128 C 6.0092 3.1419 1.9154 0
M  V30 129 H 8.9895 2.1400 0.6121 0
M  V30 130 H 9.8255 3.7231 2.2909 0
M  V30 131 H 8.2696 4.8663 3.8230 0
M  V30 132 H 5.9186 5.2393 4.5997 0
M  V30 133 H 3.4877 4.8209 4.2694 0
M  V30 134 H 4.1986 2.4456 0.9592 0
M  V30 135 C 5.8805 -0.6603 -1.2529 0
M  V30 136 C 6.8916 -1.4196 -1.8506 0
M  V30 137 C 6.5687 -2.5936 -2.5061 0
M  V30 138 C 5.2557 -3.0283 -2.5718 0
M  V30 139 C 4.2339 -2.2774 -1.9850 0
M  V30 140 C 4.5566 -1.0869 -1.3360 0
M  V30 141 H 7.9176 -1.0905 -1.7899 0
M  V30 142 H 7.3502 -3.1826 -2.9615 0
M  V30 143 H 5.0358 -3.9693 -3.0503 0
M  V30 144 H 3.7840 -0.4670 -0.9101 0
M  V30 145 C 2.8408 -2.7320 -2.0276 0
M  V30 146 C 2.3237 -3.4493 -3.1113 0
M  V30 147 C 0.9916 -3.8090 -3.1194 0
M  V30 148 N 0.1620 -3.4798 -2.1251 0
M  V30 149 C 0.6418 -2.8250 -1.0603 0
M  V30 150 C 1.9633 -2.4499 -0.9717 0
M  V30 151 H 2.9481 -3.7014 -3.9528 0
M  V30 152 H 0.5586 -4.3705 -3.9422 0
M  V30 153 H -0.0780 -2.6084 -0.2721 0
M  V30 154 H 2.3261 -1.9541 -0.0861 0
M  V30 END ATOM
M  V30 BEGIN BOND
M  V30 1 3 3 4
M  V30 2 1 4 5
M  V30 3 2 5 6
M  V30 4 1 6 7
M  V30 5 2 7 8
M  V30 6 1 8 9
M  V30 7 2 9 10
M  V30 8 1 10 11
M  V30 9 2 11 12
M  V30 10 1 12 13
M  V30 11 2 13 14
M  V30 12 1 14 5
M  V30 13 1 14 9
M  V30 14 1 6 15
M  V30 15 1 7 16
M  V30 16 1 8 17
M  V30 17 1 10 18
M  V30 18 1 11 19
M  V30 19 1 13 20
M  V30 20 2 21 22
M  V30 21 1 22 23
M  V30 22 2 23 24
M  V30 23 1 24 25
M  V30 24 2 25 26
M  V30 25 1 26 21
M  V30 26 1 22 27
M  V30 27 1 23 28
M  V30 28 1 24 29
M  V30 29 1 26 30
M  V30 30 2 31 32
M  V30 31 1 32 33
M  V30 32 2 33 34
M  V30 33 1 34 35
M  V30 34 2 35 36
M  V30 35 1 36 31
M  V30 36 1 32 37
M  V30 37 1 33 38
M  V30 38 1 35 39
M  V30 39 1 36 40
M  V30 40 1 3 21
M  V30 41 1 25 31
M  V30 42 3 41 42
M  V30 43 1 42 43
M  V30 44 2 43 44
M  V30 45 1 44 45
M  V30 46 2 45 46
M  V30 47 1 46 47
M  V30 48 2 47 48
M  V30 49 1 48 49
M  V30 50 2 49 50
M  V30 51 1 50 51
M  V30 52 2 51 52
M  V30 53 1 52 43
M  V30 54 1 52 47
M  V30 55 1 44 53
M  V30 56 1 45 54
M  V30 57 1 46 55
M  V30 58 1 48 56
M  V30 59 1 49 57
M  V30 60 1 51 58
M  V30 61 2 59 60
M  V30 62 1 60 61
M  V30 63 2 61 62
M  V30 64 1 62 63
M  V30 65 2 63 64
M  V30 66 1 64 59
M  V30 67 1 60 65
M  V30 68 1 61 66
M  V30 69 1 62 67
M  V30 70 1 64 68
M  V30 71 2 69 70
M  V30 72 1 70 71
M  V30 73 2 71 72
M  V30 74 1 72 73
M  V30 75 2 73 74
M  V30 76 1 74 69
M  V30 77 1 70 75
M  V30 78 1 71 76
M  V30 79 1 73 77
M  V30 80 1 74 78
M  V30 81 1 41 59
M  V30 82 1 63 69
M  V30 83 3 79 80
M  V30 84 1 80 81
M  V30 85 2 81 82
M  V30 86 1 82 83
M  V30 87 2 83 84
M  V30 88 1 84 85
M  V30 89 2 85 86
M  V30 90 1 86 87
M  V30 91 2 87 88
M  V30 92 1 88 89
M  V30 93 2 89 90
M  V30 94 1 90 81
M  V30 95 1 90 85
M  V30 96 1 82 91
M  V30 97 1 83 92
M  V30 98 1 84 93
M  V30 99 1 86 94
M  V30 100 1 87 95
M  V30 101 1 89 96
M  V30 102 2 97 98
M  V30 103 1 98 99
M  V30 104 2 99 100
M  V30 105 1 100 101
M  V30 106 2 101 102
M  V30 107 1 102 97
M  V30 108 1 98 103
M  V30 109 1 99 104
M  V30 110 1 100 105
M  V30 111 1 102 106
M  V30 112 2 107 108
M  V30 113 1 108 109
M  V30 114 2 109 110
M  V30 115 1 110 111
M  V30 116 2 111 112
M  V30 117 1 112 107
M  V30 118 1 108 113
M  V30 119 1 109 114
M  V30 120 1 111 115
M  V30 121 1 112 116
M  V30 122 1 79 97
M  V30 123 1 101 107
M  V30 124 3 117 118
M  V30 125 1 118 119
M  V30 126 2 119 120
M  V30 127 1 120 121
M  V30 128 2 121 122
M  V30 129 1 122 123
M  V30 130 2 123 124
M  V30 131 1 124 125
M  V30 132 2 125 126
M  V30 133 1 126 127
M  V30 134 2 127 128
M  V30 135 1 128 119
M  V30 136 1 128 123
M  V30 137 1 120 129
M  V30 138 1 121 130
M  V30 139 1 122 131
M  V30 140 1 124 132
M  V30 141 1 125 133
M  V30 142 1 127 134
M  V30 143 2 135 136
M  V30 144 1 136 137
M  V30 145 2 137 138
M  V30 146 1 138 139
M  V30 147 2 139 140
M  V30 148 1 140 135
M  V30 149 1 136 141
M  V30 150 1 137 142
M  V30 151 1 138 143
M  V30 152 1 140 144
M  V30 153 2 145 146
M  V30 154 1 146 147
M  V30 155 2 147 148
M  V30 156 1 148 149
M  V30 157 2 149 150
M  V30 158 1 150 145
M  V30 159 1 146 151
M  V30 160 1 147 152
M  V30 161 1 149 153
M  V30 162 1 150 154
M  V30 163 1 117 135
M  V30 164 1 139 145
M  V30 165 9 34 1
M  V30 166 9 72 1
M  V30 167 9 88 1
M  V30 168 9 126 1
M  V30 169 9 12 2
M  V30 170 9 50 2
M  V30 171 9 110 2
M  V30 172 9 148 2
M  V30 END BOND
M  V30 END CTAB
M  END

$$$$
