
     RDKit          3D

  0  0  0  0  0  0  0  0  0  0999 V3000
M  V30 BEGIN CTAB
M  V30 COUNTS 154 172 0 0 0
M  V30 BEGIN ATOM
M  V30 1 Pd 0.4567 -3.2079 -3.3424 0 CHG=2
M  V30 2 Pd -0.4600 3.2016 3.3468 0 CHG=2
M  V30 3 C 0.9014 5.8475 -1.9944 0
M  V30 4 C 0.8123 6.5179 -0.9913 0
M  V30 5 C 0.8504 7.3585 0.1379 0
M  V30 6 C 1.1446 8.7005 -0.0246 0
M  V30 7 C 1.3104 9.5424 1.0801 0
M  V30 8 C 1.2193 9.0538 2.3596 0
M  V30 9 C 0.9102 7.6982 2.5733 0
M  V30 10 C 0.8304 7.1255 3.8628 0
M  V30 11 C 0.4967 5.8102 4.0022 0
M  V30 12 N 0.1888 5.0303 2.9368 0
M  V30 13 C 0.2867 5.5183 1.7155 0
M  V30 14 C 0.6802 6.8409 1.4578 0
M  V30 15 H 1.2635 9.0999 -1.0201 0
M  V30 16 H 1.5363 10.5849 0.9148 0
M  V30 17 H 1.3843 9.6975 3.2093 0
M  V30 18 H 1.0392 7.7365 4.7263 0
M  V30 19 H 0.4623 5.3286 4.9773 0
M  V30 20 H 0.0342 4.8560 0.8909 0
M  V30 21 C 1.1002 5.0499 -3.1420 0
M  V30 22 C 1.4471 5.6481 -4.3578 0
M  V30 23 C 1.7190 4.8551 -5.4573 0
M  V30 24 C 1.6567 3.4749 -5.3662 0
M  V30 25 C 1.3061 2.8629 -4.1601 0
M  V30 26 C 1.0190 3.6617 -3.0546 0
M  V30 27 H 1.5087 6.7232 -4.4290 0
M  V30 28 H 1.9931 5.3172 -6.3936 0
M  V30 29 H 1.9155 2.8778 -6.2263 0
M  V30 30 H 0.7075 3.2178 -2.1228 0
M  V30 31 C 1.2514 1.4030 -4.0390 0
M  V30 32 C 0.8620 0.5809 -5.1015 0
M  V30 33 C 0.7738 -0.7832 -4.9131 0
M  V30 34 N 1.0347 -1.3546 -3.7338 0
M  V30 35 C 1.4479 -0.5926 -2.7134 0
M  V30 36 C 1.5794 0.7725 -2.8310 0
M  V30 37 H 0.6032 1.0039 -6.0584 0
M  V30 38 H 0.4790 -1.4509 -5.7174 0
M  V30 39 H 1.6724 -1.1204 -1.7875 0
M  V30 40 H 1.9478 1.3540 -2.0014 0
M  V30 41 C -5.5341 2.9043 -0.0199 0
M  V30 42 C -5.4917 3.6424 0.9378 0
M  V30 43 C -5.5744 4.4325 2.1003 0
M  V30 44 C -6.7490 5.1070 2.3821 0
M  V30 45 C -6.9117 5.8024 3.5850 0
M  V30 46 C -5.9224 5.8077 4.5364 0
M  V30 47 C -4.7062 5.1452 4.2889 0
M  V30 48 C -3.6592 5.0871 5.2363 0
M  V30 49 C -2.4930 4.4526 4.9218 0
M  V30 50 N -2.2792 3.9074 3.6992 0
M  V30 51 C -3.2446 3.9107 2.8007 0
M  V30 52 C -4.5032 4.4824 3.0434 0
M  V30 53 H -7.5583 5.0822 1.6686 0
M  V30 54 H -7.8410 6.3196 3.7691 0
M  V30 55 H -6.0652 6.3136 5.4784 0
M  V30 56 H -3.7957 5.5432 6.2037 0
M  V30 57 H -1.6817 4.3569 5.6400 0
M  V30 58 H -3.0300 3.4595 1.8346 0
M  V30 59 C -5.6153 1.9701 -1.0751 0
M  V30 60 C -6.7976 1.8506 -1.8126 0
M  V30 61 C -6.8990 0.8776 -2.7897 0
M  V30 62 C -5.8443 0.0166 -3.0417 0
M  V30 63 C -4.6544 0.1276 -2.3177 0
M  V30 64 C -4.5465 1.1171 -1.3419 0
M  V30 65 H -7.6263 2.5115 -1.6098 0
M  V30 66 H -7.8141 0.7814 -3.3541 0
M  V30 67 H -5.9646 -0.7620 -3.7783 0
M  V30 68 H -3.6261 1.2519 -0.7967 0
M  V30 69 C -3.5344 -0.7872 -2.5578 0
M  V30 70 C -3.2579 -1.3099 -3.8254 0
M  V30 71 C -2.1603 -2.1270 -4.0031 0
M  V30 72 N -1.3312 -2.4290 -2.9998 0
M  V30 73 C -1.5958 -1.9705 -1.7699 0
M  V30 74 C -2.6829 -1.1667 -1.5113 0
M  V30 75 H -3.8775 -1.0601 -4.6711 0
M  V30 76 H -1.9196 -2.5538 -4.9723 0
M  V30 77 H -0.8980 -2.2731 -0.9903 0
M  V30 78 H -2.8875 -0.8426 -0.5039 0
M  V30 79 C -0.8998 -5.8534 2.0002 0
M  V30 80 C -0.8171 -6.5225 0.9957 0
M  V30 81 C -0.8629 -7.3617 -0.1343 0
M  V30 82 C -1.1637 -8.7024 0.0280 0
M  V30 83 C -1.3374 -9.5426 -1.0768 0
M  V30 84 C -1.2472 -9.0535 -2.3561 0
M  V30 85 C -0.9314 -7.6994 -2.5696 0
M  V30 86 C -0.8519 -7.1262 -3.8589 0
M  V30 87 C -0.5117 -5.8125 -3.9984 0
M  V30 88 N -0.1970 -5.0350 -2.9332 0
M  V30 89 C -0.2940 -5.5233 -1.7120 0
M  V30 90 C -0.6936 -6.8441 -1.4542 0
M  V30 91 H -1.2820 -9.1018 1.0236 0
M  V30 92 H -1.5686 -10.5838 -0.9115 0
M  V30 93 H -1.4181 -9.6956 -3.2059 0
M  V30 94 H -1.0661 -7.7355 -4.7224 0
M  V30 95 H -0.4773 -5.3306 -4.9733 0
M  V30 96 H -0.0356 -4.8630 -0.8877 0
M  V30 97 C -1.0914 -5.0568 3.1495 0
M  V30 98 C -1.4273 -5.6559 4.3678 0
M  V30 99 C -1.6924 -4.8637 5.4698 0
M  V30 100 C -1.6341 -3.4832 5.3783 0
M  V30 101 C -1.2945 -2.8703 4.1697 0
M  V30 102 C -1.0141 -3.6683 3.0619 0
M  V30 103 H -1.4860 -6.7311 4.4395 0
M  V30 104 H -1.9581 -5.3265 6.4081 0
M  V30 105 H -1.8876 -2.8870 6.2405 0
M  V30 106 H -0.7113 -3.2234 2.1276 0
M  V30 107 C -1.2438 -1.4103 4.0482 0
M  V30 108 C -0.8477 -0.5876 5.1076 0
M  V30 109 C -0.7632 0.7767 4.9187 0
M  V30 110 N -1.0337 1.3477 3.7413 0
M  V30 111 C -1.4538 0.5850 2.7242 0
M  V30 112 C -1.5823 -0.7803 2.8428 0
M  V30 113 H -0.5808 -1.0102 6.0626 0
M  V30 114 H -0.4632 1.4449 5.7208 0
M  V30 115 H -1.6862 1.1123 1.8002 0
M  V30 116 H -1.9564 -1.3622 2.0162 0
M  V30 117 C 5.5422 -2.8927 0.0093 0
M  V30 118 C 5.4977 -3.6339 -0.9459 0
M  V30 119 C 5.5779 -4.4275 -2.1063 0
M  V30 120 C 6.7533 -5.0997 -2.3905 0
M  V30 121 C 6.9131 -5.7987 -3.5916 0
M  V30 122 C 5.9200 -5.8099 -4.5391 0
M  V30 123 C 4.7031 -5.1499 -4.2889 0
M  V30 124 C 3.6524 -5.0974 -5.2324 0
M  V30 125 C 2.4860 -4.4647 -4.9158 0
M  V30 126 N 2.2752 -3.9159 -3.6943 0
M  V30 127 C 3.2439 -3.9139 -2.7993 0
M  V30 128 C 4.5031 -4.4834 -3.0449 0
M  V30 129 H 7.5654 -5.0703 -1.6802 0
M  V30 130 H 7.8430 -6.3139 -3.7777 0
M  V30 131 H 6.0604 -6.3186 -5.4798 0
M  V30 132 H 3.7863 -5.5565 -6.1990 0
M  V30 133 H 1.6718 -4.3733 -5.6314 0
M  V30 134 H 3.0321 -3.4600 -1.8340 0
M  V30 135 C 5.6248 -1.9549 1.0611 0
M  V30 136 C 6.8113 -1.8263 1.7904 0
M  V30 137 C 6.9131 -0.8500 2.7643 0
M  V30 138 C 5.8548 0.0053 3.0212 0
M  V30 139 C 4.6610 -0.1150 2.3053 0
M  V30 140 C 4.5525 -1.1077 1.3329 0
M  V30 141 H 7.6426 -2.4826 1.5837 0
M  V30 142 H 7.8313 -0.7468 3.3223 0
M  V30 143 H 5.9751 0.7865 3.7548 0
M  V30 144 H 3.6294 -1.2497 0.7942 0
M  V30 145 C 3.5373 0.7941 2.5499 0
M  V30 146 C 3.2655 1.3190 3.8176 0
M  V30 147 C 2.1648 2.1311 3.9993 0
M  V30 148 N 1.3285 2.4262 3.0000 0
M  V30 149 C 1.5880 1.9653 1.7699 0
M  V30 150 C 2.6775 1.1660 1.5074 0
M  V30 151 H 3.8914 1.0746 4.6603 0
M  V30 152 H 1.9274 2.5594 4.9688 0
M  V30 153 H 0.8839 2.2618 0.9935 0
M  V30 154 H 2.8778 0.8395 0.5000 0
M  V30 END ATOM
M  V30 BEGIN BOND
M  V30 1 3 3 4
M  V30 2 1 4 5
M  V30 3 2 5 6
M  V30 4 1 6 7
M  V30 5 2 7 8
M  V30 6 1 8 9
M  V30 7 2 9 10
M  V30 8 1 10 11
M  V30 9 2 11 12
M  V30 10 1 12 13
M  V30 11 2 13 14
M  V30 12 1 14 5
M  V30 13 1 14 9
M  V30 14 1 6 15
M  V30 15 1 7 16
M  V30 16 1 8 17
M  V30 17 1 10 18
M  V30 18 1 11 19
M  V30 19 1 13 20
M  V30 20 2 21 22
M  V30 21 1 22 23
M  V30 22 2 23 24
M  V30 23 1 24 25
M  V30 24 2 25 26
M  V30 25 1 26 21
M  V30 26 1 22 27
M  V30 27 1 23 28
M  V30 28 1 24 29
M  V30 29 1 26 30
M  V30 30 2 31 32
M  V30 31 1 32 33
M  V30 32 2 33 34
M  V30 33 1 34 35
M  V30 34 2 35 36
M  V30 35 1 36 31
M  V30 36 1 32 37
M  V30 37 1 33 38
M  V30 38 1 35 39
M  V30 39 1 36 40
M  V30 40 1 3 21
M  V30 41 1 25 31
M  V30 42 3 41 42
M  V30 43 1 42 43
M  V30 44 2 43 44
M  V30 45 1 44 45
M  V30 46 2 45 46
M  V30 47 1 46 47
M  V30 48 2 47 48
M  V30 49 1 48 49
M  V30 50 2 49 50
M  V30 51 1 50 51
M  V30 52 2 51 52
M  V30 53 1 52 43
M  V30 54 1 52 47
M  V30 55 1 44 53
M  V30 56 1 45 54
M  V30 57 1 46 55
M  V30 58 1 48 56
M  V30 59 1 49 57
M  V30 60 1 51 58
M  V30 61 2 59 60
M  V30 62 1 60 61
M  V30 63 2 61 62
M  V30 64 1 62 63
M  V30 65 2 63 64
M  V30 66 1 64 59
M  V30 67 1 60 65
M  V30 68 1 61 66
M  V30 69 1 62 67
M  V30 70 1 64 68
M  V30 71 2 69 70
M  V30 72 1 70 71
M  V30 73 2 71 72
M  V30 74 1 72 73
M  V30 75 2 73 74
M  V30 76 1 74 69
M  V30 77 1 70 75
M  V30 78 1 71 76
M  V30 79 1 73 77
M  V30 80 1 74 78
M  V30 81 1 41 59
M  V30 82 1 63 69
M  V30 83 3 79 80
M  V30 84 1 80 81
M  V30 85 2 81 82
M  V30 86 1 82 83
M  V30 87 2 83 84
M  V30 88 1 84 85
M  V30 89 2 85 86
M  V30 90 1 86 87
M  V30 91 2 87 88
M  V30 92 1 88 89
M  V30 93 2 89 90
M  V30 94 1 90 81
M  V30 95 1 90 85
M  V30 96 1 82 91
M  V30 97 1 83 92
M  V30 98 1 84 93
M  V30 99 1 86 94
M  V30 100 1 87 95
M  V30 101 1 89 96
M  V30 102 2 97 98
M  V30 103 1 98 99
M  V30 104 2 99 100
M  V30 105 1 100 101
M  V30 106 2 101 102
M  V30 107 1 102 97
M  V30 108 1 98 103
M  V30 109 1 99 104
M  V30 110 1 100 105
M  V30 111 1 102 106
M  V30 112 2 107 108
M  V30 113 1 108 109
M  V30 114 2 109 110
M  V30 115 1 110 111
M  V30 116 2 111 112
M  V30 117 1 112 107
M  V30 118 1 108 113
M  V30 119 1 109 114
M  V30 120 1 111 115
M  V30 121 1 112 116
M  V30 122 1 79 97
M  V30 123 1 101 107
M  V30 124 3 117 118
M  V30 125 1 118 119
M  V30 126 2 119 120
M  V30 127 1 120 121
M  V30 128 2 121 122
M  V30 129 1 122 123
M  V30 130 2 123 124
M  V30 131 1 124 125
M  V30 132 2 125 126
M  V30 133 1 126 127
M  V30 134 2 127 128
M  V30 135 1 128 119
M  V30 136 1 128 123
M  V30 137 1 120 129
M  V30 138 1 121 130
M  V30 139 1 122 131
M  V30 140 1 124 132
M  V30 141 1 125 133
M  V30 142 1 127 134
M  V30 143 2 135 136
M  V30 144 1 136 137
M  V30 145 2 137 138
M  V30 146 1 138 139
M  V30 147 2 139 140
M  V30 148 1 140 135
M  V30 149 1 136 141
M  V30 150 1 137 142
M  V30 151 1 138 143
M  V30 152 1 140 144
M  V30 153 2 145 146
M  V30 154 1 146 147
M  V30 155 2 147 148
M  V30 156 1 148 149
M  V30 157 2 149 150
M  V30 158 1 150 145
M  V30 159 1 146 151
M  V30 160 1 147 152
M  V30 161 1 149 153
M  V30 162 1 150 154
M  V30 163 1 117 135
M  V30 164 1 139 145
M  V30 165 9 34 1
M  V30 166 9 72 1
M  V30 167 9 88 1
M  V30 168 9 126 1
M  V30 169 9 12 2
M  V30 170 9 50 2
M  V30 171 9 110 2
M  V30 172 9 148 2
M  V30 END BOND
M  V30 END CTAB
M  END

$$$$
