
     RDKit          3D

  0  0  0  0  0  0  0  0  0  0999 V3000
M  V30 BEGIN CTAB
M  V30 COUNTS 154 172 0 0 0
M  V30 BEGIN ATOM
M  V30 1 Pd 1.2626 -3.9294 2.5183 0 CHG=2
M  V30 2 Pd -0.5657 4.1629 -1.7054 0 CHG=2
M  V30 3 C 4.8762 4.3695 1.0742 0
M  V30 4 C 4.4362 5.3559 0.5292 0
M  V30 5 C 3.9545 6.5815 0.0302 0
M  V30 6 C 4.7322 7.7186 0.1569 0
M  V30 7 C 4.2415 8.9744 -0.2160 0
M  V30 8 C 2.9607 9.1199 -0.6875 0
M  V30 9 C 2.1375 7.9899 -0.8442 0
M  V30 10 C 0.8011 8.0735 -1.2963 0
M  V30 11 C 0.0655 6.9357 -1.4551 0
M  V30 12 N 0.5902 5.7047 -1.2365 0
M  V30 13 C 1.8217 5.5873 -0.7797 0
M  V30 14 C 2.6436 6.6962 -0.5243 0
M  V30 15 H 5.7278 7.6366 0.5651 0
M  V30 16 H 4.8781 9.8391 -0.1058 0
M  V30 17 H 2.5725 10.0943 -0.9392 0
M  V30 18 H 0.3741 9.0408 -1.5078 0
M  V30 19 H -0.9768 6.9665 -1.7656 0
M  V30 20 H 2.1998 4.5812 -0.6147 0
M  V30 21 C 5.3408 3.2459 1.7914 0
M  V30 22 C 6.5687 3.3013 2.4588 0
M  V30 23 C 6.9797 2.2264 3.2253 0
M  V30 24 C 6.1860 1.0979 3.3436 0
M  V30 25 C 4.9595 1.0256 2.6783 0
M  V30 26 C 4.5503 2.1032 1.8948 0
M  V30 27 H 7.1841 4.1842 2.3789 0
M  V30 28 H 7.9245 2.2723 3.7455 0
M  V30 29 H 6.5092 0.2910 3.9821 0
M  V30 30 H 3.6275 2.0586 1.3392 0
M  V30 31 C 4.0974 -0.1532 2.8047 0
M  V30 32 C 4.6160 -1.4437 2.9536 0
M  V30 33 C 3.7577 -2.5226 3.0105 0
M  V30 34 N 2.4328 -2.3808 2.9116 0
M  V30 35 C 1.9109 -1.1522 2.8090 0
M  V30 36 C 2.7021 -0.0266 2.7662 0
M  V30 37 H 5.6804 -1.6074 2.9966 0
M  V30 38 H 4.1263 -3.5373 3.1300 0
M  V30 39 H 0.8241 -1.1007 2.7613 0
M  V30 40 H 2.2501 0.9509 2.7184 0
M  V30 41 C 3.1954 0.7884 -5.1167 0
M  V30 42 C 2.7980 1.8520 -5.5345 0
M  V30 43 C 2.2903 3.0126 -6.1492 0
M  V30 44 C 2.6917 3.3331 -7.4337 0
M  V30 45 C 2.1193 4.4079 -8.1222 0
M  V30 46 C 1.1178 5.1560 -7.5556 0
M  V30 47 C 0.6851 4.8742 -6.2469 0
M  V30 48 C -0.3603 5.5858 -5.6161 0
M  V30 49 C -0.7119 5.2812 -4.3335 0
M  V30 50 N -0.0556 4.3386 -3.6135 0
M  V30 51 C 0.9019 3.6293 -4.1785 0
M  V30 52 C 1.3001 3.8199 -5.5108 0
M  V30 53 H 3.4475 2.7335 -7.9176 0
M  V30 54 H 2.4599 4.6301 -9.1220 0
M  V30 55 H 0.6526 5.9607 -8.1031 0
M  V30 56 H -0.8742 6.3625 -6.1594 0
M  V30 57 H -1.5361 5.7831 -3.8312 0
M  V30 58 H 1.3992 2.8818 -3.5645 0
M  V30 59 C 3.5770 -0.4951 -4.6699 0
M  V30 60 C 4.3884 -1.3019 -5.4741 0
M  V30 61 C 4.6905 -2.5887 -5.0681 0
M  V30 62 C 4.1934 -3.0887 -3.8765 0
M  V30 63 C 3.3868 -2.2928 -3.0592 0
M  V30 64 C 3.0929 -0.9908 -3.4611 0
M  V30 65 H 4.7668 -0.9198 -6.4098 0
M  V30 66 H 5.3113 -3.2132 -5.6924 0
M  V30 67 H 4.4073 -4.1101 -3.6040 0
M  V30 68 H 2.5070 -0.3411 -2.8309 0
M  V30 69 C 2.8362 -2.8117 -1.8036 0
M  V30 70 C 3.5267 -3.7362 -1.0131 0
M  V30 71 C 2.9824 -4.1525 0.1846 0
M  V30 72 N 1.8123 -3.6873 0.6316 0
M  V30 73 C 1.1156 -2.8297 -0.1247 0
M  V30 74 C 1.5845 -2.3845 -1.3399 0
M  V30 75 H 4.4921 -4.1073 -1.3161 0
M  V30 76 H 3.4892 -4.8728 0.8202 0
M  V30 77 H 0.1579 -2.5080 0.2821 0
M  V30 78 H 0.9837 -1.7211 -1.9405 0
M  V30 79 C -4.1813 -4.1336 -0.2573 0
M  V30 80 C -3.7380 -5.1216 0.2821 0
M  V30 81 C -3.2532 -6.3487 0.7741 0
M  V30 82 C -4.0284 -7.4869 0.6411 0
M  V30 83 C -3.5350 -8.7438 1.0066 0
M  V30 84 C -2.2537 -8.8891 1.4770 0
M  V30 85 C -1.4330 -7.7582 1.6402 0
M  V30 86 C -0.0965 -7.8413 2.0918 0
M  V30 87 C 0.6367 -6.7029 2.2569 0
M  V30 88 N 0.1095 -5.4719 2.0450 0
M  V30 89 C -1.1224 -5.3545 1.5890 0
M  V30 90 C -1.9420 -6.4638 1.3278 0
M  V30 91 H -5.0243 -7.4047 0.2336 0
M  V30 92 H -4.1695 -9.6092 0.8913 0
M  V30 93 H -1.8633 -9.8641 1.7231 0
M  V30 94 H 0.3326 -8.8088 2.2980 0
M  V30 95 H 1.6790 -6.7334 2.5673 0
M  V30 96 H -1.5027 -4.3483 1.4299 0
M  V30 97 C -4.6495 -3.0078 -0.9684 0
M  V30 98 C -5.8825 -3.0592 -1.6265 0
M  V30 99 C -6.2974 -1.9818 -2.3875 0
M  V30 100 C -5.5024 -0.8545 -2.5092 0
M  V30 101 C -4.2708 -0.7860 -1.8534 0
M  V30 102 C -3.8577 -1.8661 -1.0753 0
M  V30 103 H -6.4990 -3.9412 -1.5440 0
M  V30 104 H -7.2462 -2.0247 -2.9005 0
M  V30 105 H -5.8289 -0.0457 -3.1435 0
M  V30 106 H -2.9304 -1.8246 -0.5269 0
M  V30 107 C -3.4074 0.3915 -1.9834 0
M  V30 108 C -3.9248 1.6831 -2.1250 0
M  V30 109 C -3.0651 2.7608 -2.1852 0
M  V30 110 N -1.7397 2.6166 -2.0958 0
M  V30 111 C -1.2193 1.3866 -2.0005 0
M  V30 112 C -2.0121 0.2622 -1.9554 0
M  V30 113 H -4.9892 1.8488 -2.1600 0
M  V30 114 H -3.4327 3.7765 -2.2992 0
M  V30 115 H -0.1323 1.3330 -1.9608 0
M  V30 116 H -1.5613 -0.7160 -1.9138 0
M  V30 117 C -2.4793 -0.5433 5.9428 0
M  V30 118 C -2.0850 -1.6090 6.3582 0
M  V30 119 C -1.5804 -2.7724 6.9704 0
M  V30 120 C -1.9788 -3.0917 8.2562 0
M  V30 121 C -1.4092 -4.1697 8.9419 0
M  V30 122 C -0.4131 -4.9221 8.3713 0
M  V30 123 C 0.0163 -4.6414 7.0614 0
M  V30 124 C 1.0564 -5.3571 6.4266 0
M  V30 125 C 1.4054 -5.0531 5.1432 0
M  V30 126 N 0.7511 -4.1070 4.4259 0
M  V30 127 C -0.2015 -3.3938 4.9944 0
M  V30 128 C -0.5963 -3.5837 6.3280 0
M  V30 129 H -2.7301 -2.4889 8.7431 0
M  V30 130 H -1.7472 -4.3910 9.9428 0
M  V30 131 H 0.0502 -5.7293 8.9166 0
M  V30 132 H 1.5686 -6.1367 6.9677 0
M  V30 133 H 2.2258 -5.5582 4.6381 0
M  V30 134 H -0.6974 -2.6436 4.3829 0
M  V30 135 C -2.8567 0.7421 5.4979 0
M  V30 136 C -3.6575 1.5541 6.3076 0
M  V30 137 C -3.9554 2.8423 5.9027 0
M  V30 138 C -3.4644 3.3386 4.7069 0
M  V30 139 C -2.6684 2.5374 3.8844 0
M  V30 140 C -2.3789 1.2342 4.2851 0
M  V30 141 H -4.0309 1.1749 7.2464 0
M  V30 142 H -4.5679 3.4708 6.5311 0
M  V30 143 H -3.6745 4.3609 4.4351 0
M  V30 144 H -1.8015 0.5805 3.6512 0
M  V30 145 C -2.1236 3.0525 2.6246 0
M  V30 146 C -2.8141 3.9803 1.8380 0
M  V30 147 C -2.2751 4.3933 0.6369 0
M  V30 148 N -1.1102 3.9220 0.1829 0
M  V30 149 C -0.4135 3.0607 0.9349 0
M  V30 150 C -0.8773 2.6182 2.1530 0
M  V30 151 H -3.7757 4.3566 2.1472 0
M  V30 152 H -2.7820 5.1160 0.0040 0
M  V30 153 H 0.5398 2.7334 0.5221 0
M  V30 154 H -0.2768 1.9513 2.7501 0
M  V30 END ATOM
M  V30 BEGIN BOND
M  V30 1 3 3 4
M  V30 2 1 4 5
M  V30 3 2 5 6
M  V30 4 1 6 7
M  V30 5 2 7 8
M  V30 6 1 8 9
M  V30 7 2 9 10
M  V30 8 1 10 11
M  V30 9 2 11 12
M  V30 10 1 12 13
M  V30 11 2 13 14
M  V30 12 1 14 5
M  V30 13 1 14 9
M  V30 14 1 6 15
M  V30 15 1 7 16
M  V30 16 1 8 17
M  V30 17 1 10 18
M  V30 18 1 11 19
M  V30 19 1 13 20
M  V30 20 2 21 22
M  V30 21 1 22 23
M  V30 22 2 23 24
M  V30 23 1 24 25
M  V30 24 2 25 26
M  V30 25 1 26 21
M  V30 26 1 22 27
M  V30 27 1 23 28
M  V30 28 1 24 29
M  V30 29 1 26 30
M  V30 30 2 31 32
M  V30 31 1 32 33
M  V30 32 2 33 34
M  V30 33 1 34 35
M  V30 34 2 35 36
M  V30 35 1 36 31
M  V30 36 1 32 37
M  V30 37 1 33 38
M  V30 38 1 35 39
M  V30 39 1 36 40
M  V30 40 1 3 21
M  V30 41 1 25 31
M  V30 42 3 41 42
M  V30 43 1 42 43
M  V30 44 2 43 44
M  V30 45 1 44 45
M  V30 46 2 45 46
M  V30 47 1 46 47
M  V30 48 2 47 48
M  V30 49 1 48 49
M  V30 50 2 49 50
M  V30 51 1 50 51
M  V30 52 2 51 52
M  V30 53 1 52 43
M  V30 54 1 52 47
M  V30 55 1 44 53
M  V30 56 1 45 54
M  V30 57 1 46 55
M  V30 58 1 48 56
M  V30 59 1 49 57
M  V30 60 1 51 58
M  V30 61 2 59 60
M  V30 62 1 60 61
M  V30 63 2 61 62
M  V30 64 1 62 63
M  V30 65 2 63 64
M  V30 66 1 64 59
M  V30 67 1 60 65
M  V30 68 1 61 66
M  V30 69 1 62 67
M  V30 70 1 64 68
M  V30 71 2 69 70
M  V30 72 1 70 71
M  V30 73 2 71 72
M  V30 74 1 72 73
M  V30 75 2 73 74
M  V30 76 1 74 69
M  V30 77 1 70 75
M  V30 78 1 71 76
M  V30 79 1 73 77
M  V30 80 1 74 78
M  V30 81 1 41 59
M  V30 82 1 63 69
M  V30 83 3 79 80
M  V30 84 1 80 81
M  V30 85 2 81 82
M  V30 86 1 82 83
M  V30 87 2 83 84
M  V30 88 1 84 85
M  V30 89 2 85 86
M  V30 90 1 86 87
M  V30 91 2 87 88
M  V30 92 1 88 89
M  V30 93 2 89 90
M  V30 94 1 90 81
M  V30 95 1 90 85
M  V30 96 1 82 91
M  V30 97 1 83 92
M  V30 98 1 84 93
M  V30 99 1 86 94
M  V30 100 1 87 95
M  V30 101 1 89 96
M  V30 102 2 97 98
M  V30 103 1 98 99
M  V30 104 2 99 100
M  V30 105 1 100 101
M  V30 106 2 101 102
M  V30 107 1 102 97
M  V30 108 1 98 103
M  V30 109 1 99 104
M  V30 110 1 100 105
M  V30 111 1 102 106
M  V30 112 2 107 108
M  V30 113 1 108 109
M  V30 114 2 109 110
M  V30 115 1 110 111
M  V30 116 2 111 112
M  V30 117 1 112 107
M  V30 118 1 108 113
M  V30 119 1 109 114
M  V30 120 1 111 115
M  V30 121 1 112 116
M  V30 122 1 79 97
M  V30 123 1 101 107
M  V30 124 3 117 118
M  V30 125 1 118 119
M  V30 126 2 119 120
M  V30 127 1 120 121
M  V30 128 2 121 122
M  V30 129 1 122 123
M  V30 130 2 123 124
M  V30 131 1 124 125
M  V30 132 2 125 126
M  V30 133 1 126 127
M  V30 134 2 127 128
M  V30 135 1 128 119
M  V30 136 1 128 123
M  V30 137 1 120 129
M  V30 138 1 121 130
M  V30 139 1 122 131
M  V30 140 1 124 132
M  V30 141 1 125 133
M  V30 142 1 127 134
M  V30 143 2 135 136
M  V30 144 1 136 137
M  V30 145 2 137 138
M  V30 146 1 138 139
M  V30 147 2 139 140
M  V30 148 1 140 135
M  V30 149 1 136 141
M  V30 150 1 137 142
M  V30 151 1 138 143
M  V30 152 1 140 144
M  V30 153 2 145 146
M  V30 154 1 146 147
M  V30 155 2 147 148
M  V30 156 1 148 149
M  V30 157 2 149 150
M  V30 158 1 150 145
M  V30 159 1 146 151
M  V30 160 1 147 152
M  V30 161 1 149 153
M  V30 162 1 150 154
M  V30 163 1 117 135
M  V30 164 1 139 145
M  V30 165 9 34 1
M  V30 166 9 72 1
M  V30 167 9 88 1
M  V30 168 9 126 1
M  V30 169 9 12 2
M  V30 170 9 50 2
M  V30 171 9 110 2
M  V30 172 9 148 2
M  V30 END BOND
M  V30 END CTAB
M  END

$$$$
