
     RDKit          3D

  0  0  0  0  0  0  0  0  0  0999 V3000
M  V30 BEGIN CTAB
M  V30 COUNTS 154 172 0 0 0
M  V30 BEGIN ATOM
M  V30 1 Pd -0.1835 4.2160 -1.7024 0 CHG=2
M  V30 2 Pd -0.4027 -4.6928 0.9908 0 CHG=2
M  V30 3 C 5.3161 -2.5363 1.1568 0
M  V30 4 C 5.0997 -3.6999 1.4074 0
M  V30 5 C 4.9614 -5.0889 1.5936 0
M  V30 6 C 6.0864 -5.8565 1.8361 0
M  V30 7 C 6.0076 -7.2513 1.9069 0
M  V30 8 C 4.8161 -7.9019 1.7041 0
M  V30 9 C 3.6436 -7.1618 1.4662 0
M  V30 10 C 2.3916 -7.7697 1.2209 0
M  V30 11 C 1.2864 -6.9938 1.0268 0
M  V30 12 N 1.3351 -5.6413 1.1073 0
M  V30 13 C 2.4909 -5.0359 1.2987 0
M  V30 14 C 3.6973 -5.7375 1.4500 0
M  V30 15 H 7.0429 -5.3713 1.9566 0
M  V30 16 H 6.9060 -7.8174 2.1007 0
M  V30 17 H 4.7652 -8.9792 1.7225 0
M  V30 18 H 2.3240 -8.8452 1.1854 0
M  V30 19 H 0.3150 -7.4279 0.7992 0
M  V30 20 H 2.4835 -3.9499 1.3522 0
M  V30 21 C 5.5751 -1.2040 0.7691 0
M  V30 22 C 6.8864 -0.7174 0.7712 0
M  V30 23 C 7.1420 0.5622 0.3137 0
M  V30 24 C 6.1142 1.3650 -0.1514 0
M  V30 25 C 4.7984 0.8951 -0.1543 0
M  V30 26 C 4.5379 -0.3898 0.3188 0
M  V30 27 H 7.6915 -1.3450 1.1213 0
M  V30 28 H 8.1552 0.9347 0.3095 0
M  V30 29 H 6.3455 2.3429 -0.5431 0
M  V30 30 H 3.5276 -0.7633 0.3647 0
M  V30 31 C 3.6992 1.7235 -0.6587 0
M  V30 32 C 3.6896 3.1151 -0.5189 0
M  V30 33 C 2.6015 3.8389 -0.9620 0
M  V30 34 N 1.5355 3.2511 -1.5127 0
M  V30 35 C 1.5388 1.9244 -1.6936 0
M  V30 36 C 2.5965 1.1384 -1.2959 0
M  V30 37 H 4.5110 3.6261 -0.0436 0
M  V30 38 H 2.5631 4.9207 -0.8730 0
M  V30 39 H 0.6541 1.5087 -2.1735 0
M  V30 40 H 2.5840 0.0775 -1.4870 0
M  V30 41 C -0.1324 -1.0126 5.8439 0
M  V30 42 C -0.2290 -2.2082 6.0019 0
M  V30 43 C -0.4639 -3.5688 6.2784 0
M  V30 44 C -0.5753 -3.9864 7.5925 0
M  V30 45 C -0.9281 -5.3038 7.9042 0
M  V30 46 C -1.2073 -6.2126 6.9142 0
M  V30 47 C -1.0958 -5.8361 5.5632 0
M  V30 48 C -1.3967 -6.7129 4.4966 0
M  V30 49 C -1.2395 -6.2938 3.2078 0
M  V30 50 N -0.7538 -5.0646 2.9065 0
M  V30 51 C -0.4949 -4.2057 3.8733 0
M  V30 52 C -0.6797 -4.5141 5.2300 0
M  V30 53 H -0.4028 -3.2795 8.3895 0
M  V30 54 H -1.0025 -5.5945 8.9409 0
M  V30 55 H -1.5152 -7.2173 7.1580 0
M  V30 56 H -1.7532 -7.7070 4.7139 0
M  V30 57 H -1.4973 -6.9296 2.3635 0
M  V30 58 H -0.1097 -3.2301 3.5855 0
M  V30 59 C -0.1205 0.3864 5.6564 0
M  V30 60 C -0.1224 1.2396 6.7647 0
M  V30 61 C -0.1943 2.6074 6.5750 0
M  V30 62 C -0.2704 3.1408 5.2995 0
M  V30 63 C -0.2631 2.3018 4.1822 0
M  V30 64 C -0.1768 0.9236 4.3720 0
M  V30 65 H -0.0764 0.8265 7.7606 0
M  V30 66 H -0.2024 3.2650 7.4308 0
M  V30 67 H -0.3702 4.2081 5.1802 0
M  V30 68 H -0.1281 0.2554 3.5273 0
M  V30 69 C -0.3619 2.8478 2.8253 0
M  V30 70 C 0.1892 4.0856 2.4783 0
M  V30 71 C 0.1098 4.5273 1.1734 0
M  V30 72 N -0.4676 3.8003 0.2126 0
M  V30 73 C -1.0346 2.6290 0.5277 0
M  V30 74 C -1.0129 2.1322 1.8112 0
M  V30 75 H 0.6991 4.6867 3.2132 0
M  V30 76 H 0.5224 5.4853 0.8708 0
M  V30 77 H -1.5120 2.0965 -0.2938 0
M  V30 78 H -1.5086 1.2026 2.0391 0
M  V30 79 C -5.9013 2.0574 -1.8729 0
M  V30 80 C -5.6853 3.2224 -2.1171 0
M  V30 81 C -5.5481 4.6126 -2.2957 0
M  V30 82 C -6.6744 5.3807 -2.5314 0
M  V30 83 C -6.5969 6.7760 -2.5943 0
M  V30 84 C -5.4054 7.4263 -2.3904 0
M  V30 85 C -4.2318 6.6859 -2.1594 0
M  V30 86 C -2.9797 7.2933 -1.9136 0
M  V30 87 C -1.8734 6.5173 -1.7262 0
M  V30 88 N -1.9212 5.1651 -1.8138 0
M  V30 89 C -3.0770 4.5598 -2.0062 0
M  V30 90 C -4.2843 5.2613 -2.1510 0
M  V30 91 H -7.6306 4.8953 -2.6525 0
M  V30 92 H -7.4961 7.3424 -2.7828 0
M  V30 93 H -5.3554 8.5037 -2.4027 0
M  V30 94 H -2.9128 8.3687 -1.8725 0
M  V30 95 H -0.9020 6.9510 -1.4984 0
M  V30 96 H -3.0688 3.4741 -2.0658 0
M  V30 97 C -6.1597 0.7230 -1.4925 0
M  V30 98 C -7.4696 0.2330 -1.5052 0
M  V30 99 C -7.7250 -1.0490 -1.0545 0
M  V30 100 C -6.6981 -1.8511 -0.5857 0
M  V30 101 C -5.3838 -1.3778 -0.5719 0
M  V30 102 C -5.1234 -0.0904 -1.0384 0
M  V30 103 H -8.2740 0.8598 -1.8582 0
M  V30 104 H -8.7371 -1.4242 -1.0584 0
M  V30 105 H -6.9296 -2.8311 -0.1993 0
M  V30 106 H -4.1138 0.2859 -1.0758 0
M  V30 107 C -4.2855 -2.2052 -0.0639 0
M  V30 108 C -4.2714 -3.5962 -0.2094 0
M  V30 109 C -3.1840 -4.3189 0.2373 0
M  V30 110 N -2.1226 -3.7305 0.7966 0
M  V30 111 C -2.1310 -2.4047 0.9832 0
M  V30 112 C -3.1884 -1.6198 0.5826 0
M  V30 113 H -5.0884 -4.1075 -0.6917 0
M  V30 114 H -3.1421 -5.4003 0.1440 0
M  V30 115 H -1.2503 -1.9886 1.4703 0
M  V30 116 H -3.1799 -0.5599 0.7787 0
M  V30 117 C -0.4280 0.5340 -6.5582 0
M  V30 118 C -0.3358 1.7301 -6.7156 0
M  V30 119 C -0.1056 3.0916 -6.9913 0
M  V30 120 C 0.0093 3.5095 -8.3050 0
M  V30 121 C 0.3574 4.8283 -8.6156 0
M  V30 122 C 0.6287 5.7385 -7.6246 0
M  V30 123 C 0.5136 5.3617 -6.2741 0
M  V30 124 C 0.8069 6.2398 -5.2065 0
M  V30 125 C 0.6470 5.8202 -3.9182 0
M  V30 126 N 0.1655 4.5889 -3.6184 0
M  V30 127 C -0.0865 3.7289 -4.5860 0
M  V30 128 C 0.1020 4.0380 -5.9422 0
M  V30 129 H -0.1571 2.8016 -9.1026 0
M  V30 130 H 0.4346 5.1192 -9.6521 0
M  V30 131 H 0.9332 6.7444 -7.8674 0
M  V30 132 H 1.1599 7.2355 -5.4226 0
M  V30 133 H 0.8992 6.4572 -3.0732 0
M  V30 134 H -0.4683 2.7517 -4.2997 0
M  V30 135 C -0.4348 -0.8650 -6.3704 0
M  V30 136 C -0.4200 -1.7184 -7.4784 0
M  V30 137 C -0.3436 -3.0857 -7.2876 0
M  V30 138 C -0.2758 -3.6187 -6.0114 0
M  V30 139 C -0.2960 -2.7794 -4.8946 0
M  V30 140 C -0.3869 -1.4017 -5.0854 0
M  V30 141 H -0.4594 -1.3056 -8.4747 0
M  V30 142 H -0.3255 -3.7435 -8.1433 0
M  V30 143 H -0.1722 -4.6853 -5.8910 0
M  V30 144 H -0.4457 -0.7334 -4.2414 0
M  V30 145 C -0.2052 -3.3245 -3.5368 0
M  V30 146 C -0.7534 -4.5646 -3.1932 0
M  V30 147 C -0.6810 -5.0058 -1.8878 0
M  V30 148 N -0.1133 -4.2761 -0.9232 0
M  V30 149 C 0.4505 -3.1022 -1.2345 0
M  V30 150 C 0.4352 -2.6057 -2.5182 0
M  V30 151 H -1.2556 -5.1680 -3.9317 0
M  V30 152 H -1.0916 -5.9655 -1.5877 0
M  V30 153 H 0.9195 -2.5672 -0.4098 0
M  V30 154 H 0.9278 -1.6737 -2.7429 0
M  V30 END ATOM
M  V30 BEGIN BOND
M  V30 1 3 3 4
M  V30 2 1 4 5
M  V30 3 2 5 6
M  V30 4 1 6 7
M  V30 5 2 7 8
M  V30 6 1 8 9
M  V30 7 2 9 10
M  V30 8 1 10 11
M  V30 9 2 11 12
M  V30 10 1 12 13
M  V30 11 2 13 14
M  V30 12 1 14 5
M  V30 13 1 14 9
M  V30 14 1 6 15
M  V30 15 1 7 16
M  V30 16 1 8 17
M  V30 17 1 10 18
M  V30 18 1 11 19
M  V30 19 1 13 20
M  V30 20 2 21 22
M  V30 21 1 22 23
M  V30 22 2 23 24
M  V30 23 1 24 25
M  V30 24 2 25 26
M  V30 25 1 26 21
M  V30 26 1 22 27
M  V30 27 1 23 28
M  V30 28 1 24 29
M  V30 29 1 26 30
M  V30 30 2 31 32
M  V30 31 1 32 33
M  V30 32 2 33 34
M  V30 33 1 34 35
M  V30 34 2 35 36
M  V30 35 1 36 31
M  V30 36 1 32 37
M  V30 37 1 33 38
M  V30 38 1 35 39
M  V30 39 1 36 40
M  V30 40 1 3 21
M  V30 41 1 25 31
M  V30 42 3 41 42
M  V30 43 1 42 43
M  V30 44 2 43 44
M  V30 45 1 44 45
M  V30 46 2 45 46
M  V30 47 1 46 47
M  V30 48 2 47 48
M  V30 49 1 48 49
M  V30 50 2 49 50
M  V30 51 1 50 51
M  V30 52 2 51 52
M  V30 53 1 52 43
M  V30 54 1 52 47
M  V30 55 1 44 53
M  V30 56 1 45 54
M  V30 57 1 46 55
M  V30 58 1 48 56
M  V30 59 1 49 57
M  V30 60 1 51 58
M  V30 61 2 59 60
M  V30 62 1 60 61
M  V30 63 2 61 62
M  V30 64 1 62 63
M  V30 65 2 63 64
M  V30 66 1 64 59
M  V30 67 1 60 65
M  V30 68 1 61 66
M  V30 69 1 62 67
M  V30 70 1 64 68
M  V30 71 2 69 70
M  V30 72 1 70 71
M  V30 73 2 71 72
M  V30 74 1 72 73
M  V30 75 2 73 74
M  V30 76 1 74 69
M  V30 77 1 70 75
M  V30 78 1 71 76
M  V30 79 1 73 77
M  V30 80 1 74 78
M  V30 81 1 41 59
M  V30 82 1 63 69
M  V30 83 3 79 80
M  V30 84 1 80 81
M  V30 85 2 81 82
M  V30 86 1 82 83
M  V30 87 2 83 84
M  V30 88 1 84 85
M  V30 89 2 85 86
M  V30 90 1 86 87
M  V30 91 2 87 88
M  V30 92 1 88 89
M  V30 93 2 89 90
M  V30 94 1 90 81
M  V30 95 1 90 85
M  V30 96 1 82 91
M  V30 97 1 83 92
M  V30 98 1 84 93
M  V30 99 1 86 94
M  V30 100 1 87 95
M  V30 101 1 89 96
M  V30 102 2 97 98
M  V30 103 1 98 99
M  V30 104 2 99 100
M  V30 105 1 100 101
M  V30 106 2 101 102
M  V30 107 1 102 97
M  V30 108 1 98 103
M  V30 109 1 99 104
M  V30 110 1 100 105
M  V30 111 1 102 106
M  V30 112 2 107 108
M  V30 113 1 108 109
M  V30 114 2 109 110
M  V30 115 1 110 111
M  V30 116 2 111 112
M  V30 117 1 112 107
M  V30 118 1 108 113
M  V30 119 1 109 114
M  V30 120 1 111 115
M  V30 121 1 112 116
M  V30 122 1 79 97
M  V30 123 1 101 107
M  V30 124 3 117 118
M  V30 125 1 118 119
M  V30 126 2 119 120
M  V30 127 1 120 121
M  V30 128 2 121 122
M  V30 129 1 122 123
M  V30 130 2 123 124
M  V30 131 1 124 125
M  V30 132 2 125 126
M  V30 133 1 126 127
M  V30 134 2 127 128
M  V30 135 1 128 119
M  V30 136 1 128 123
M  V30 137 1 120 129
M  V30 138 1 121 130
M  V30 139 1 122 131
M  V30 140 1 124 132
M  V30 141 1 125 133
M  V30 142 1 127 134
M  V30 143 2 135 136
M  V30 144 1 136 137
M  V30 145 2 137 138
M  V30 146 1 138 139
M  V30 147 2 139 140
M  V30 148 1 140 135
M  V30 149 1 136 141
M  V30 150 1 137 142
M  V30 151 1 138 143
M  V30 152 1 140 144
M  V30 153 2 145 146
M  V30 154 1 146 147
M  V30 155 2 147 148
M  V30 156 1 148 149
M  V30 157 2 149 150
M  V30 158 1 150 145
M  V30 159 1 146 151
M  V30 160 1 147 152
M  V30 161 1 149 153
M  V30 162 1 150 154
M  V30 163 1 117 135
M  V30 164 1 139 145
M  V30 165 9 34 1
M  V30 166 9 72 1
M  V30 167 9 88 1
M  V30 168 9 126 1
M  V30 169 9 12 2
M  V30 170 9 50 2
M  V30 171 9 110 2
M  V30 172 9 148 2
M  V30 END BOND
M  V30 END CTAB
M  END

$$$$
