
     RDKit          3D

  0  0  0  0  0  0  0  0  0  0999 V3000
M  V30 BEGIN CTAB
M  V30 COUNTS 154 172 0 0 0
M  V30 BEGIN ATOM
M  V30 1 Pd -1.5456 4.3435 -0.8551 0 CHG=2
M  V30 2 Pd 1.5409 -4.2776 0.8236 0 CHG=2
M  V30 3 C 6.2249 -0.3888 0.2579 0
M  V30 4 C 6.4335 -1.5708 0.4099 0
M  V30 5 C 6.7720 -2.9368 0.4605 0
M  V30 6 C 8.1041 -3.3079 0.4214 0
M  V30 7 C 8.4771 -4.6541 0.3483 0
M  V30 8 C 7.5305 -5.6457 0.2790 0
M  V30 9 C 6.1636 -5.3163 0.3274 0
M  V30 10 C 5.1392 -6.2851 0.2315 0
M  V30 11 C 3.8325 -5.9023 0.3154 0
M  V30 12 N 3.4743 -4.6136 0.5371 0
M  V30 13 C 4.3995 -3.6756 0.5964 0
M  V30 14 C 5.7689 -3.9532 0.4616 0
M  V30 15 H 8.8671 -2.5446 0.4316 0
M  V30 16 H 9.5263 -4.9061 0.3225 0
M  V30 17 H 7.8207 -6.6803 0.1852 0
M  V30 18 H 5.4028 -7.3207 0.0880 0
M  V30 19 H 3.0188 -6.6166 0.2087 0
M  V30 20 H 4.0665 -2.6554 0.7714 0
M  V30 21 C 5.9767 0.9733 -0.0167 0
M  V30 22 C 7.0462 1.8594 -0.1826 0
M  V30 23 C 6.7974 3.1742 -0.5308 0
M  V30 24 C 5.5011 3.6217 -0.7223 0
M  V30 25 C 4.4222 2.7499 -0.5548 0
M  V30 26 C 4.6711 1.4276 -0.1909 0
M  V30 27 H 8.0584 1.5109 -0.0463 0
M  V30 28 H 7.6236 3.8559 -0.6651 0
M  V30 29 H 5.3363 4.6404 -1.0359 0
M  V30 30 H 3.8561 0.7438 -0.0165 0
M  V30 31 C 3.0438 3.2002 -0.7697 0
M  V30 32 C 2.6310 4.5038 -0.4757 0
M  V30 33 C 1.3075 4.8558 -0.6442 0
M  V30 34 N 0.3899 3.9821 -1.0685 0
M  V30 35 C 0.7687 2.7400 -1.3945 0
M  V30 36 C 2.0743 2.3216 -1.2721 0
M  V30 37 H 3.3300 5.2291 -0.0924 0
M  V30 38 H 0.9539 5.8601 -0.4298 0
M  V30 39 H -0.0198 2.0842 -1.7609 0
M  V30 40 H 2.3539 1.3258 -1.5757 0
M  V30 41 C 1.6047 -0.9645 5.9411 0
M  V30 42 C 1.9165 -2.1329 5.9786 0
M  V30 43 C 2.1740 -3.5082 6.1371 0
M  V30 44 C 2.4579 -4.0063 7.3961 0
M  V30 45 C 2.5993 -5.3810 7.6138 0
M  V30 46 C 2.4269 -6.2790 6.5902 0
M  V30 47 C 2.1485 -5.8178 5.2905 0
M  V30 48 C 1.9309 -6.6887 4.1992 0
M  V30 49 C 1.6941 -6.1755 2.9573 0
M  V30 50 N 1.7057 -4.8414 2.7174 0
M  V30 51 C 1.8703 -3.9960 3.7161 0
M  V30 52 C 2.0604 -4.4171 5.0415 0
M  V30 53 H 2.5558 -3.3237 8.2262 0
M  V30 54 H 2.8238 -5.7330 8.6091 0
M  V30 55 H 2.4997 -7.3403 6.7689 0
M  V30 56 H 1.9501 -7.7545 4.3612 0
M  V30 57 H 1.4856 -6.8163 2.1033 0
M  V30 58 H 1.8696 -2.9347 3.4781 0
M  V30 59 C 1.1453 0.3699 5.9118 0
M  V30 60 C 1.0968 1.1178 7.0927 0
M  V30 61 C 0.5686 2.3956 7.0719 0
M  V30 62 C 0.0820 2.9401 5.8955 0
M  V30 63 C 0.1294 2.2077 4.7066 0
M  V30 64 C 0.6741 0.9248 4.7237 0
M  V30 65 H 1.4631 0.6915 8.0139 0
M  V30 66 H 0.5253 2.9698 7.9849 0
M  V30 67 H -0.3651 3.9213 5.9149 0
M  V30 68 H 0.7607 0.3532 3.8137 0
M  V30 69 C -0.3982 2.7608 3.4557 0
M  V30 70 C -0.3374 4.1267 3.1608 0
M  V30 71 C -0.8045 4.5850 1.9459 0
M  V30 72 N -1.3049 3.7601 1.0217 0
M  V30 73 C -1.4074 2.4534 1.2954 0
M  V30 74 C -0.9812 1.9254 2.4930 0
M  V30 75 H 0.0950 4.8224 3.8612 0
M  V30 76 H -0.7770 5.6394 1.6867 0
M  V30 77 H -1.8478 1.8376 0.5125 0
M  V30 78 H -1.1094 0.8747 2.6963 0
M  V30 79 C -6.2289 0.4533 -0.2942 0
M  V30 80 C -6.4370 1.6361 -0.4397 0
M  V30 81 C -6.7754 3.0025 -0.4825 0
M  V30 82 C -8.1075 3.3732 -0.4366 0
M  V30 83 C -8.4803 4.7191 -0.3554 0
M  V30 84 C -7.5334 5.7103 -0.2850 0
M  V30 85 C -6.1668 5.3814 -0.3405 0
M  V30 86 C -5.1421 6.3497 -0.2441 0
M  V30 87 C -3.8356 5.9675 -0.3348 0
M  V30 88 N -3.4782 4.6798 -0.5636 0
M  V30 89 C -4.4035 3.7420 -0.6238 0
M  V30 90 C -5.7725 4.0188 -0.4826 0
M  V30 91 H -8.8703 2.6099 -0.4474 0
M  V30 92 H -9.5293 4.9709 -0.3243 0
M  V30 93 H -7.8233 6.7445 -0.1852 0
M  V30 94 H -5.4051 7.3847 -0.0950 0
M  V30 95 H -3.0216 6.6814 -0.2279 0
M  V30 96 H -4.0710 2.7227 -0.8048 0
M  V30 97 C -5.9809 -0.9103 -0.0270 0
M  V30 98 C -7.0500 -1.7985 0.1278 0
M  V30 99 C -6.8017 -3.1153 0.4691 0
M  V30 100 C -5.5058 -3.5625 0.6645 0
M  V30 101 C -4.4271 -2.6886 0.5081 0
M  V30 102 C -4.6756 -1.3643 0.1511 0
M  V30 103 H -8.0620 -1.4505 -0.0115 0
M  V30 104 H -7.6277 -3.7988 0.5949 0
M  V30 105 H -5.3415 -4.5829 0.9726 0
M  V30 106 H -3.8604 -0.6785 -0.0146 0
M  V30 107 C -3.0493 -3.1385 0.7269 0
M  V30 108 C -2.6335 -4.4397 0.4266 0
M  V30 109 C -1.3102 -4.7910 0.5989 0
M  V30 110 N -0.3955 -3.9189 1.0325 0
M  V30 111 C -0.7776 -2.6794 1.3648 0
M  V30 112 C -2.0831 -2.2619 1.2394 0
M  V30 113 H -3.3298 -5.1635 0.0357 0
M  V30 114 H -0.9544 -5.7936 0.3796 0
M  V30 115 H 0.0084 -2.0250 1.7390 0
M  V30 116 H -2.3653 -1.2685 1.5484 0
M  V30 117 C -1.5854 1.0372 -5.9798 0
M  V30 118 C -1.9012 2.2046 -6.0159 0
M  V30 119 C -2.1632 3.5792 -6.1727 0
M  V30 120 C -2.4440 4.0787 -7.4319 0
M  V30 121 C -2.5898 5.4532 -7.6476 0
M  V30 122 C -2.4250 6.3498 -6.6216 0
M  V30 123 C -2.1500 5.8872 -5.3217 0
M  V30 124 C -1.9398 6.7568 -4.2280 0
M  V30 125 C -1.7054 6.2423 -2.9863 0
M  V30 126 N -1.7128 4.9077 -2.7487 0
M  V30 127 C -1.8706 4.0634 -3.7496 0
M  V30 128 C -2.0574 4.4864 -5.0749 0
M  V30 129 H -2.5360 3.3972 -8.2638 0
M  V30 130 H -2.8118 5.8062 -8.6431 0
M  V30 131 H -2.5013 7.4112 -6.7985 0
M  V30 132 H -1.9625 7.8229 -4.3881 0
M  V30 133 H -1.5023 6.8824 -2.1305 0
M  V30 134 H -1.8667 3.0018 -3.5137 0
M  V30 135 C -1.1212 -0.2955 -5.9511 0
M  V30 136 C -1.0604 -1.0395 -7.1339 0
M  V30 137 C -0.5281 -2.3154 -7.1129 0
M  V30 138 C -0.0492 -2.8622 -5.9343 0
M  V30 139 C -0.1087 -2.1337 -4.7435 0
M  V30 140 C -0.6578 -0.8527 -4.7610 0
M  V30 141 H -1.4207 -0.6114 -8.0567 0
M  V30 142 H -0.4754 -2.8866 -8.0273 0
M  V30 143 H 0.4015 -3.8417 -5.9531 0
M  V30 144 H -0.7539 -0.2843 -3.8499 0
M  V30 145 C 0.4113 -2.6887 -3.4903 0
M  V30 146 C 0.3532 -4.0556 -3.1995 0
M  V30 147 C 0.8137 -4.5157 -1.9829 0
M  V30 148 N 1.3051 -3.6916 -1.0530 0
M  V30 149 C 1.4045 -2.3838 -1.3222 0
M  V30 150 C 0.9843 -1.8539 -2.5211 0
M  V30 151 H -0.0719 -4.7508 -3.9050 0
M  V30 152 H 0.7882 -5.5708 -1.7267 0
M  V30 153 H 1.8369 -1.7684 -0.5344 0
M  V30 154 H 1.1095 -0.8021 -2.7205 0
M  V30 END ATOM
M  V30 BEGIN BOND
M  V30 1 3 3 4
M  V30 2 1 4 5
M  V30 3 2 5 6
M  V30 4 1 6 7
M  V30 5 2 7 8
M  V30 6 1 8 9
M  V30 7 2 9 10
M  V30 8 1 10 11
M  V30 9 2 11 12
M  V30 10 1 12 13
M  V30 11 2 13 14
M  V30 12 1 14 5
M  V30 13 1 14 9
M  V30 14 1 6 15
M  V30 15 1 7 16
M  V30 16 1 8 17
M  V30 17 1 10 18
M  V30 18 1 11 19
M  V30 19 1 13 20
M  V30 20 2 21 22
M  V30 21 1 22 23
M  V30 22 2 23 24
M  V30 23 1 24 25
M  V30 24 2 25 26
M  V30 25 1 26 21
M  V30 26 1 22 27
M  V30 27 1 23 28
M  V30 28 1 24 29
M  V30 29 1 26 30
M  V30 30 2 31 32
M  V30 31 1 32 33
M  V30 32 2 33 34
M  V30 33 1 34 35
M  V30 34 2 35 36
M  V30 35 1 36 31
M  V30 36 1 32 37
M  V30 37 1 33 38
M  V30 38 1 35 39
M  V30 39 1 36 40
M  V30 40 1 3 21
M  V30 41 1 25 31
M  V30 42 3 41 42
M  V30 43 1 42 43
M  V30 44 2 43 44
M  V30 45 1 44 45
M  V30 46 2 45 46
M  V30 47 1 46 47
M  V30 48 2 47 48
M  V30 49 1 48 49
M  V30 50 2 49 50
M  V30 51 1 50 51
M  V30 52 2 51 52
M  V30 53 1 52 43
M  V30 54 1 52 47
M  V30 55 1 44 53
M  V30 56 1 45 54
M  V30 57 1 46 55
M  V30 58 1 48 56
M  V30 59 1 49 57
M  V30 60 1 51 58
M  V30 61 2 59 60
M  V30 62 1 60 61
M  V30 63 2 61 62
M  V30 64 1 62 63
M  V30 65 2 63 64
M  V30 66 1 64 59
M  V30 67 1 60 65
M  V30 68 1 61 66
M  V30 69 1 62 67
M  V30 70 1 64 68
M  V30 71 2 69 70
M  V30 72 1 70 71
M  V30 73 2 71 72
M  V30 74 1 72 73
M  V30 75 2 73 74
M  V30 76 1 74 69
M  V30 77 1 70 75
M  V30 78 1 71 76
M  V30 79 1 73 77
M  V30 80 1 74 78
M  V30 81 1 41 59
M  V30 82 1 63 69
M  V30 83 3 79 80
M  V30 84 1 80 81
M  V30 85 2 81 82
M  V30 86 1 82 83
M  V30 87 2 83 84
M  V30 88 1 84 85
M  V30 89 2 85 86
M  V30 90 1 86 87
M  V30 91 2 87 88
M  V30 92 1 88 89
M  V30 93 2 89 90
M  V30 94 1 90 81
M  V30 95 1 90 85
M  V30 96 1 82 91
M  V30 97 1 83 92
M  V30 98 1 84 93
M  V30 99 1 86 94
M  V30 100 1 87 95
M  V30 101 1 89 96
M  V30 102 2 97 98
M  V30 103 1 98 99
M  V30 104 2 99 100
M  V30 105 1 100 101
M  V30 106 2 101 102
M  V30 107 1 102 97
M  V30 108 1 98 103
M  V30 109 1 99 104
M  V30 110 1 100 105
M  V30 111 1 102 106
M  V30 112 2 107 108
M  V30 113 1 108 109
M  V30 114 2 109 110
M  V30 115 1 110 111
M  V30 116 2 111 112
M  V30 117 1 112 107
M  V30 118 1 108 113
M  V30 119 1 109 114
M  V30 120 1 111 115
M  V30 121 1 112 116
M  V30 122 1 79 97
M  V30 123 1 101 107
M  V30 124 3 117 118
M  V30 125 1 118 119
M  V30 126 2 119 120
M  V30 127 1 120 121
M  V30 128 2 121 122
M  V30 129 1 122 123
M  V30 130 2 123 124
M  V30 131 1 124 125
M  V30 132 2 125 126
M  V30 133 1 126 127
M  V30 134 2 127 128
M  V30 135 1 128 119
M  V30 136 1 128 123
M  V30 137 1 120 129
M  V30 138 1 121 130
M  V30 139 1 122 131
M  V30 140 1 124 132
M  V30 141 1 125 133
M  V30 142 1 127 134
M  V30 143 2 135 136
M  V30 144 1 136 137
M  V30 145 2 137 138
M  V30 146 1 138 139
M  V30 147 2 139 140
M  V30 148 1 140 135
M  V30 149 1 136 141
M  V30 150 1 137 142
M  V30 151 1 138 143
M  V30 152 1 140 144
M  V30 153 2 145 146
M  V30 154 1 146 147
M  V30 155 2 147 148
M  V30 156 1 148 149
M  V30 157 2 149 150
M  V30 158 1 150 145
M  V30 159 1 146 151
M  V30 160 1 147 152
M  V30 161 1 149 153
M  V30 162 1 150 154
M  V30 163 1 117 135
M  V30 164 1 139 145
M  V30 165 9 34 1
M  V30 166 9 72 1
M  V30 167 9 88 1
M  V30 168 9 126 1
M  V30 169 9 12 2
M  V30 170 9 50 2
M  V30 171 9 110 2
M  V30 172 9 148 2
M  V30 END BOND
M  V30 END CTAB
M  END

$$$$
