
     RDKit          3D

  0  0  0  0  0  0  0  0  0  0999 V3000
M  V30 BEGIN CTAB
M  V30 COUNTS 154 172 0 0 0
M  V30 BEGIN ATOM
M  V30 1 Pd 4.3884 -1.3223 -0.8152 0 CHG=2
M  V30 2 Pd -4.3899 1.3187 0.8078 0 CHG=2
M  V30 3 C -0.5648 4.0508 4.7175 0
M  V30 4 C -1.7584 4.2187 4.8204 0
M  V30 5 C -3.1311 4.3754 5.0933 0
M  V30 6 C -3.5248 5.1470 6.1719 0
M  V30 7 C -4.8696 5.2299 6.5481 0
M  V30 8 C -5.8347 4.5204 5.8778 0
M  V30 9 C -5.4825 3.7317 4.7674 0
M  V30 10 C -6.4214 2.9546 4.0521 0
M  V30 11 C -6.0197 2.2347 2.9652 0
M  V30 12 N -4.7431 2.2730 2.5101 0
M  V30 13 C -3.8303 2.9577 3.1712 0
M  V30 14 C -4.1247 3.6841 4.3358 0
M  V30 15 H -2.7796 5.6807 6.7415 0
M  V30 16 H -5.1400 5.8443 7.3933 0
M  V30 17 H -6.8657 4.5570 6.1931 0
M  V30 18 H -7.4493 2.9358 4.3773 0
M  V30 19 H -6.7082 1.5972 2.4144 0
M  V30 20 H -2.8187 2.9569 2.7725 0
M  V30 21 C 0.8182 3.7750 4.6545 0
M  V30 22 C 1.6923 4.3700 5.5700 0
M  V30 23 C 3.0332 4.0331 5.5536 0
M  V30 24 C 3.5189 3.1089 4.6441 0
M  V30 25 C 2.6590 2.5103 3.7197 0
M  V30 26 C 1.3096 2.8590 3.7267 0
M  V30 27 H 1.3150 5.0814 6.2884 0
M  V30 28 H 3.7062 4.4878 6.2648 0
M  V30 29 H 4.5604 2.8311 4.6804 0
M  V30 30 H 0.6314 2.4425 2.9994 0
M  V30 31 C 3.1508 1.5171 2.7603 0
M  V30 32 C 4.4382 1.5789 2.2170 0
M  V30 33 C 4.8275 0.6492 1.2746 0
M  V30 34 N 4.0046 -0.3114 0.8440 0
M  V30 35 C 2.7816 -0.4151 1.3787 0
M  V30 36 C 2.3296 0.4629 2.3377 0
M  V30 37 H 5.1204 2.3617 2.5060 0
M  V30 38 H 5.8209 0.6654 0.8357 0
M  V30 39 H 2.1693 -1.2357 1.0073 0
M  V30 40 H 1.3525 0.3317 2.7738 0
M  V30 41 C -1.4510 5.5794 -2.4137 0
M  V30 42 C -2.6251 5.7229 -2.1593 0
M  V30 43 C -4.0130 5.9129 -2.0165 0
M  V30 44 C -4.6050 7.0383 -2.5613 0
M  V30 45 C -5.9942 7.2026 -2.5464 0
M  V30 46 C -6.8136 6.2352 -2.0204 0
M  V30 47 C -6.2556 5.0790 -1.4449 0
M  V30 48 C -7.0423 4.0324 -0.9129 0
M  V30 49 C -6.4375 2.9507 -0.3423 0
M  V30 50 N -5.0902 2.8613 -0.2225 0
M  V30 51 C -4.3213 3.8008 -0.7377 0
M  V30 52 C -4.8393 4.9250 -1.3994 0
M  V30 53 H -3.9851 7.7938 -3.0195 0
M  V30 54 H -6.4204 8.0952 -2.9782 0
M  V30 55 H -7.8861 6.3477 -2.0438 0
M  V30 56 H -8.1171 4.0983 -0.9680 0
M  V30 57 H -7.0116 2.1108 0.0428 0
M  V30 58 H -3.2460 3.6868 -0.6208 0
M  V30 59 C -0.1091 5.3621 -2.7938 0
M  V30 60 C 0.5538 6.3048 -3.5861 0
M  V30 61 C 1.8400 6.0476 -4.0237 0
M  V30 62 C 2.4763 4.8639 -3.6903 0
M  V30 63 C 1.8297 3.9152 -2.8941 0
M  V30 64 C 0.5382 4.1796 -2.4413 0
M  V30 65 H 0.0559 7.2226 -3.8588 0
M  V30 66 H 2.3487 6.7725 -4.6408 0
M  V30 67 H 3.4625 4.6681 -4.0807 0
M  V30 68 H 0.0311 3.4839 -1.7921 0
M  V30 69 C 2.4806 2.6484 -2.5469 0
M  V30 70 C 3.8626 2.5489 -2.3552 0
M  V30 71 C 4.4153 1.3415 -1.9802 0
M  V30 72 N 3.6683 0.2529 -1.7749 0
M  V30 73 C 2.3478 0.3140 -1.9878 0
M  V30 74 C 1.7276 1.4779 -2.3821 0
M  V30 75 H 4.4980 3.4116 -2.4711 0
M  V30 76 H 5.4847 1.2280 -1.8280 0
M  V30 77 H 1.7980 -0.6126 -1.8291 0
M  V30 78 H 0.6678 1.4854 -2.5786 0
M  V30 79 C 0.5621 -4.0579 -4.7213 0
M  V30 80 C 1.7561 -4.2202 -4.8279 0
M  V30 81 C 3.1285 -4.3708 -5.1055 0
M  V30 82 C 3.5216 -5.1370 -6.1884 0
M  V30 83 C 4.8654 -5.2136 -6.5694 0
M  V30 84 C 5.8300 -4.5032 -5.8996 0
M  V30 85 C 5.4787 -3.7200 -4.7850 0
M  V30 86 C 6.4172 -2.9424 -4.0697 0
M  V30 87 C 6.0165 -2.2278 -2.9789 0
M  V30 88 N 4.7414 -2.2720 -2.5200 0
M  V30 89 C 3.8289 -2.9576 -3.1807 0
M  V30 90 C 4.1222 -3.6788 -4.3488 0
M  V30 91 H 2.7763 -5.6712 -6.7575 0
M  V30 92 H 5.1351 -5.8236 -7.4178 0
M  V30 93 H 6.8601 -4.5348 -6.2183 0
M  V30 94 H 7.4440 -2.9189 -4.3980 0
M  V30 95 H 6.7047 -1.5902 -2.4279 0
M  V30 96 H 2.8187 -2.9618 -2.7786 0
M  V30 97 C -0.8217 -3.7880 -4.6538 0
M  V30 98 C -1.6973 -4.3916 -5.5621 0
M  V30 99 C -3.0397 -4.0605 -5.5417 0
M  V30 100 C -3.5253 -3.1335 -4.6349 0
M  V30 101 C -2.6641 -2.5262 -3.7177 0
M  V30 102 C -1.3132 -2.8691 -3.7287 0
M  V30 103 H -1.3201 -5.1051 -6.2785 0
M  V30 104 H -3.7138 -4.5218 -6.2474 0
M  V30 105 H -4.5681 -2.8603 -4.6682 0
M  V30 106 H -0.6336 -2.4455 -3.0068 0
M  V30 107 C -3.1558 -1.5301 -2.7612 0
M  V30 108 C -4.4403 -1.5950 -2.2117 0
M  V30 109 C -4.8294 -0.6625 -1.2719 0
M  V30 110 N -4.0086 0.3036 -0.8493 0
M  V30 111 C -2.7885 0.4101 -1.3904 0
M  V30 112 C -2.3372 -0.4703 -2.3474 0
M  V30 113 H -5.1206 -2.3819 -2.4939 0
M  V30 114 H -5.8207 -0.6809 -0.8283 0
M  V30 115 H -2.1781 1.2349 -1.0256 0
M  V30 116 H -1.3630 -0.3367 -2.7888 0
M  V30 117 C 1.4563 -5.5732 2.4294 0
M  V30 118 C 2.6293 -5.7182 2.1710 0
M  V30 119 C 4.0165 -5.9098 2.0236 0
M  V30 120 C 4.6098 -7.0333 2.5710 0
M  V30 121 C 5.9987 -7.1987 2.5513 0
M  V30 122 C 6.8167 -6.2343 2.0178 0
M  V30 123 C 6.2575 -5.0801 1.4397 0
M  V30 124 C 7.0427 -4.0363 0.9006 0
M  V30 125 C 6.4367 -2.9563 0.3282 0
M  V30 126 N 5.0890 -2.8662 0.2131 0
M  V30 127 C 4.3213 -3.8031 0.7349 0
M  V30 128 C 4.8411 -4.9251 1.3991 0
M  V30 129 H 3.9911 -7.7863 3.0349 0
M  V30 130 H 6.4260 -8.0898 2.9852 0
M  V30 131 H 7.8893 -6.3475 2.0375 0
M  V30 132 H 8.1178 -4.1029 0.9516 0
M  V30 133 H 7.0101 -2.1183 -0.0623 0
M  V30 134 H 3.2458 -3.6888 0.6220 0
M  V30 135 C 0.1159 -5.3532 2.8135 0
M  V30 136 C -0.5431 -6.2896 3.6166 0
M  V30 137 C -1.8277 -6.0294 4.0572 0
M  V30 138 C -2.4662 -4.8489 3.7164 0
M  V30 139 C -1.8232 -3.9067 2.9097 0
M  V30 140 C -0.5336 -4.1741 2.4537 0
M  V30 141 H -0.0434 -7.2048 3.8949 0
M  V30 142 H -2.3333 -6.7495 4.6824 0
M  V30 143 H -3.4507 -4.6504 4.1092 0
M  V30 144 H -0.0296 -3.4837 1.7966 0
M  V30 145 C -2.4762 -2.6429 2.5551 0
M  V30 146 C -3.8589 -2.5450 2.3683 0
M  V30 147 C -4.4133 -1.3404 1.9870 0
M  V30 148 N -3.6675 -0.2531 1.7711 0
M  V30 149 C -2.3460 -0.3125 1.9787 0
M  V30 150 C -1.7240 -1.4735 2.3785 0
M  V30 151 H -4.4936 -3.4072 2.4930 0
M  V30 152 H -5.4834 -1.2280 1.8381 0
M  V30 153 H -1.7970 0.6131 1.8108 0
M  V30 154 H -0.6634 -1.4799 2.5703 0
M  V30 END ATOM
M  V30 BEGIN BOND
M  V30 1 3 3 4
M  V30 2 1 4 5
M  V30 3 2 5 6
M  V30 4 1 6 7
M  V30 5 2 7 8
M  V30 6 1 8 9
M  V30 7 2 9 10
M  V30 8 1 10 11
M  V30 9 2 11 12
M  V30 10 1 12 13
M  V30 11 2 13 14
M  V30 12 1 14 5
M  V30 13 1 14 9
M  V30 14 1 6 15
M  V30 15 1 7 16
M  V30 16 1 8 17
M  V30 17 1 10 18
M  V30 18 1 11 19
M  V30 19 1 13 20
M  V30 20 2 21 22
M  V30 21 1 22 23
M  V30 22 2 23 24
M  V30 23 1 24 25
M  V30 24 2 25 26
M  V30 25 1 26 21
M  V30 26 1 22 27
M  V30 27 1 23 28
M  V30 28 1 24 29
M  V30 29 1 26 30
M  V30 30 2 31 32
M  V30 31 1 32 33
M  V30 32 2 33 34
M  V30 33 1 34 35
M  V30 34 2 35 36
M  V30 35 1 36 31
M  V30 36 1 32 37
M  V30 37 1 33 38
M  V30 38 1 35 39
M  V30 39 1 36 40
M  V30 40 1 3 21
M  V30 41 1 25 31
M  V30 42 3 41 42
M  V30 43 1 42 43
M  V30 44 2 43 44
M  V30 45 1 44 45
M  V30 46 2 45 46
M  V30 47 1 46 47
M  V30 48 2 47 48
M  V30 49 1 48 49
M  V30 50 2 49 50
M  V30 51 1 50 51
M  V30 52 2 51 52
M  V30 53 1 52 43
M  V30 54 1 52 47
M  V30 55 1 44 53
M  V30 56 1 45 54
M  V30 57 1 46 55
M  V30 58 1 48 56
M  V30 59 1 49 57
M  V30 60 1 51 58
M  V30 61 2 59 60
M  V30 62 1 60 61
M  V30 63 2 61 62
M  V30 64 1 62 63
M  V30 65 2 63 64
M  V30 66 1 64 59
M  V30 67 1 60 65
M  V30 68 1 61 66
M  V30 69 1 62 67
M  V30 70 1 64 68
M  V30 71 2 69 70
M  V30 72 1 70 71
M  V30 73 2 71 72
M  V30 74 1 72 73
M  V30 75 2 73 74
M  V30 76 1 74 69
M  V30 77 1 70 75
M  V30 78 1 71 76
M  V30 79 1 73 77
M  V30 80 1 74 78
M  V30 81 1 41 59
M  V30 82 1 63 69
M  V30 83 3 79 80
M  V30 84 1 80 81
M  V30 85 2 81 82
M  V30 86 1 82 83
M  V30 87 2 83 84
M  V30 88 1 84 85
M  V30 89 2 85 86
M  V30 90 1 86 87
M  V30 91 2 87 88
M  V30 92 1 88 89
M  V30 93 2 89 90
M  V30 94 1 90 81
M  V30 95 1 90 85
M  V30 96 1 82 91
M  V30 97 1 83 92
M  V30 98 1 84 93
M  V30 99 1 86 94
M  V30 100 1 87 95
M  V30 101 1 89 96
M  V30 102 2 97 98
M  V30 103 1 98 99
M  V30 104 2 99 100
M  V30 105 1 100 101
M  V30 106 2 101 102
M  V30 107 1 102 97
M  V30 108 1 98 103
M  V30 109 1 99 104
M  V30 110 1 100 105
M  V30 111 1 102 106
M  V30 112 2 107 108
M  V30 113 1 108 109
M  V30 114 2 109 110
M  V30 115 1 110 111
M  V30 116 2 111 112
M  V30 117 1 112 107
M  V30 118 1 108 113
M  V30 119 1 109 114
M  V30 120 1 111 115
M  V30 121 1 112 116
M  V30 122 1 79 97
M  V30 123 1 101 107
M  V30 124 3 117 118
M  V30 125 1 118 119
M  V30 126 2 119 120
M  V30 127 1 120 121
M  V30 128 2 121 122
M  V30 129 1 122 123
M  V30 130 2 123 124
M  V30 131 1 124 125
M  V30 132 2 125 126
M  V30 133 1 126 127
M  V30 134 2 127 128
M  V30 135 1 128 119
M  V30 136 1 128 123
M  V30 137 1 120 129
M  V30 138 1 121 130
M  V30 139 1 122 131
M  V30 140 1 124 132
M  V30 141 1 125 133
M  V30 142 1 127 134
M  V30 143 2 135 136
M  V30 144 1 136 137
M  V30 145 2 137 138
M  V30 146 1 138 139
M  V30 147 2 139 140
M  V30 148 1 140 135
M  V30 149 1 136 141
M  V30 150 1 137 142
M  V30 151 1 138 143
M  V30 152 1 140 144
M  V30 153 2 145 146
M  V30 154 1 146 147
M  V30 155 2 147 148
M  V30 156 1 148 149
M  V30 157 2 149 150
M  V30 158 1 150 145
M  V30 159 1 146 151
M  V30 160 1 147 152
M  V30 161 1 149 153
M  V30 162 1 150 154
M  V30 163 1 117 135
M  V30 164 1 139 145
M  V30 165 9 34 1
M  V30 166 9 72 1
M  V30 167 9 88 1
M  V30 168 9 126 1
M  V30 169 9 12 2
M  V30 170 9 50 2
M  V30 171 9 110 2
M  V30 172 9 148 2
M  V30 END BOND
M  V30 END CTAB
M  END

$$$$
