
     RDKit          3D

  0  0  0  0  0  0  0  0  0  0999 V3000
M  V30 BEGIN CTAB
M  V30 COUNTS 154 172 0 0 0
M  V30 BEGIN ATOM
M  V30 1 Pd -3.5258 -2.6661 -0.7857 0 CHG=2
M  V30 2 Pd 3.7026 3.0558 0.5100 0 CHG=2
M  V30 3 C 1.6054 0.9929 5.8700 0
M  V30 4 C 2.5012 1.8054 5.8419 0
M  V30 5 C 3.4582 2.8362 5.9124 0
M  V30 6 C 3.8859 3.2816 7.1503 0
M  V30 7 C 4.7424 4.3816 7.2657 0
M  V30 8 C 5.1570 5.0726 6.1545 0
M  V30 9 C 4.7568 4.6488 4.8742 0
M  V30 10 C 5.1236 5.3317 3.6926 0
M  V30 11 C 4.7268 4.8510 2.4792 0
M  V30 12 N 4.0216 3.6993 2.3586 0
M  V30 13 C 3.6297 3.0528 3.4392 0
M  V30 14 C 3.9321 3.4941 4.7370 0
M  V30 15 H 3.5399 2.7815 8.0418 0
M  V30 16 H 5.0578 4.6990 8.2480 0
M  V30 17 H 5.7874 5.9428 6.2490 0
M  V30 18 H 5.7126 6.2322 3.7637 0
M  V30 19 H 4.9602 5.3718 1.5529 0
M  V30 20 H 3.0628 2.1362 3.2953 0
M  V30 21 C 0.4963 0.1202 5.9005 0
M  V30 22 C -0.0092 -0.3256 7.1261 0
M  V30 23 C -1.1442 -1.1148 7.1515 0
M  V30 24 C -1.7889 -1.4640 5.9769 0
M  V30 25 C -1.2927 -1.0311 4.7446 0
M  V30 26 C -0.1411 -0.2465 4.7170 0
M  V30 27 H 0.4835 -0.0449 8.0442 0
M  V30 28 H -1.5376 -1.4530 8.0982 0
M  V30 29 H -2.6968 -2.0442 6.0265 0
M  V30 30 H 0.2860 0.0685 3.7785 0
M  V30 31 C -1.9706 -1.3760 3.4915 0
M  V30 32 C -2.6396 -2.5917 3.3158 0
M  V30 33 C -3.2111 -2.8869 2.0951 0
M  V30 34 N -3.1351 -2.0507 1.0557 0
M  V30 35 C -2.5348 -0.8642 1.2115 0
M  V30 36 C -1.9593 -0.4908 2.4049 0
M  V30 37 H -2.6898 -3.3127 4.1153 0
M  V30 38 H -3.7416 -3.8194 1.9257 0
M  V30 39 H -2.5308 -0.2158 0.3365 0
M  V30 40 H -1.5141 0.4854 2.5087 0
M  V30 41 C 5.4994 -2.7574 0.8952 0
M  V30 42 C 6.3173 -1.8697 0.9776 0
M  V30 43 C 7.3482 -0.9107 0.9606 0
M  V30 44 C 8.6638 -1.3243 1.0699 0
M  V30 45 C 9.7197 -0.4166 0.9357 0
M  V30 46 C 9.4821 0.9064 0.6577 0
M  V30 47 C 8.1599 1.3748 0.5492 0
M  V30 48 C 7.8463 2.7167 0.2361 0
M  V30 49 C 6.5421 3.1129 0.1747 0
M  V30 50 N 5.5205 2.2662 0.4526 0
M  V30 51 C 5.7712 0.9982 0.7144 0
M  V30 52 C 7.0727 0.4735 0.7424 0
M  V30 53 H 8.8783 -2.3673 1.2457 0
M  V30 54 H 10.7334 -0.7750 1.0302 0
M  V30 55 H 10.2993 1.5965 0.5178 0
M  V30 56 H 8.6447 3.4153 0.0438 0
M  V30 57 H 6.2645 4.1282 -0.1001 0
M  V30 58 H 4.9211 0.3543 0.9285 0
M  V30 59 C 4.5583 -3.7910 0.6988 0
M  V30 60 C 4.9728 -5.1266 0.7226 0
M  V30 61 C 4.0624 -6.1303 0.4477 0
M  V30 62 C 2.7462 -5.8267 0.1435 0
M  V30 63 C 2.3155 -4.4977 0.1221 0
M  V30 64 C 3.2293 -3.4860 0.4124 0
M  V30 65 H 6.0009 -5.3660 0.9464 0
M  V30 66 H 4.3843 -7.1606 0.4596 0
M  V30 67 H 2.0668 -6.6250 -0.1104 0
M  V30 68 H 2.9151 -2.4550 0.4433 0
M  V30 69 C 0.9306 -4.1564 -0.2163 0
M  V30 70 C -0.1444 -4.9860 0.1192 0
M  V30 71 C -1.4321 -4.5904 -0.1800 0
M  V30 72 N -1.6957 -3.4218 -0.7716 0
M  V30 73 C -0.6810 -2.6274 -1.1353 0
M  V30 74 C 0.6308 -2.9636 -0.8884 0
M  V30 75 H 0.0196 -5.9191 0.6329 0
M  V30 76 H -2.2891 -5.2124 0.0617 0
M  V30 77 H -0.9593 -1.7016 -1.6369 0
M  V30 78 H 1.4262 -2.3187 -1.2248 0
M  V30 79 C -1.4312 -0.5989 -6.1449 0
M  V30 80 C -2.3226 -1.4163 -6.1167 0
M  V30 81 C -3.2738 -2.4523 -6.1875 0
M  V30 82 C -3.6962 -2.9021 -7.4258 0
M  V30 83 C -4.5463 -4.0070 -7.5416 0
M  V30 84 C -4.9598 -4.6983 -6.4303 0
M  V30 85 C -4.5651 -4.2703 -5.1497 0
M  V30 86 C -4.9314 -4.9531 -3.9679 0
M  V30 87 C -4.5400 -4.4685 -2.7542 0
M  V30 88 N -3.8409 -3.3130 -2.6337 0
M  V30 89 C -3.4499 -2.6661 -3.7144 0
M  V30 90 C -3.7471 -3.1110 -5.0123 0
M  V30 91 H -3.3506 -2.4014 -8.3172 0
M  V30 92 H -4.8573 -4.3276 -8.5240 0
M  V30 93 H -5.5852 -5.5721 -6.5248 0
M  V30 94 H -5.5156 -5.8567 -4.0389 0
M  V30 95 H -4.7732 -4.9890 -1.8278 0
M  V30 96 H -2.8882 -1.7463 -3.5704 0
M  V30 97 C -0.3268 0.2796 -6.1755 0
M  V30 98 C 0.1717 0.7343 -7.4006 0
M  V30 99 C 1.3027 1.5295 -7.4263 0
M  V30 100 C 1.9500 1.8759 -6.2523 0
M  V30 101 C 1.4609 1.4341 -5.0205 0
M  V30 102 C 0.3133 0.6436 -4.9925 0
M  V30 103 H -0.3230 0.4559 -8.3184 0
M  V30 104 H 1.6908 1.8746 -8.3727 0
M  V30 105 H 2.8548 2.4608 -6.3024 0
M  V30 106 H -0.1083 0.3214 -4.0540 0
M  V30 107 C 2.1415 1.7761 -3.7680 0
M  V30 108 C 2.8046 2.9943 -3.5887 0
M  V30 109 C 3.3786 3.2867 -2.3683 0
M  V30 110 N 3.3100 2.4453 -1.3325 0
M  V30 111 C 2.7157 1.2562 -1.4924 0
M  V30 112 C 2.1385 0.8855 -2.6857 0
M  V30 113 H 2.8485 3.7195 -4.3848 0
M  V30 114 H 3.9047 4.2212 -2.1961 0
M  V30 115 H 2.7179 0.6036 -0.6206 0
M  V30 116 H 1.6985 -0.0927 -2.7929 0
M  V30 117 C -5.3282 3.1491 -1.1456 0
M  V30 118 C -6.1452 2.2609 -1.2323 0
M  V30 119 C -7.1751 1.3008 -1.2200 0
M  V30 120 C -8.4912 1.7139 -1.3259 0
M  V30 121 C -9.5462 0.8045 -1.1963 0
M  V30 122 C -9.3072 -0.5198 -0.9261 0
M  V30 123 C -7.9846 -0.9876 -0.8212 0
M  V30 124 C -7.6694 -2.3308 -0.5156 0
M  V30 125 C -6.3650 -2.7262 -0.4569 0
M  V30 126 N -5.3442 -1.8772 -0.7306 0
M  V30 127 C -5.5960 -0.6080 -0.9854 0
M  V30 128 C -6.8982 -0.0843 -1.0099 0
M  V30 129 H -8.7067 2.7578 -1.4956 0
M  V30 130 H -10.5603 1.1626 -1.2880 0
M  V30 131 H -10.1236 -1.2115 -0.7897 0
M  V30 132 H -8.4673 -3.0313 -0.3268 0
M  V30 133 H -6.0865 -3.7427 -0.1877 0
M  V30 134 H -4.7470 0.0379 -1.1963 0
M  V30 135 C -4.3879 4.1824 -0.9442 0
M  V30 136 C -4.8043 5.5175 -0.9551 0
M  V30 137 C -3.8941 6.5203 -0.6758 0
M  V30 138 C -2.5761 6.2160 -0.3797 0
M  V30 139 C -2.1437 4.8875 -0.3711 0
M  V30 140 C -3.0571 3.8769 -0.6661 0
M  V30 141 H -5.8338 5.7573 -1.1726 0
M  V30 142 H -4.2175 7.5501 -0.6779 0
M  V30 143 H -1.8967 7.0129 -0.1221 0
M  V30 144 H -2.7417 2.8467 -0.7069 0
M  V30 145 C -0.7570 4.5453 -0.0407 0
M  V30 146 C 0.3160 5.3787 -0.3733 0
M  V30 147 C 1.6050 4.9825 -0.0811 0
M  V30 148 N 1.8718 3.8099 0.5010 0
M  V30 149 C 0.8594 3.0114 0.8618 0
M  V30 150 C -0.4535 3.3477 0.6212 0
M  V30 151 H 0.1490 6.3154 -0.8795 0
M  V30 152 H 2.4606 5.6072 -0.3209 0
M  V30 153 H 1.1404 2.0819 1.3552 0
M  V30 154 H -1.2473 2.6992 0.9547 0
M  V30 END ATOM
M  V30 BEGIN BOND
M  V30 1 3 3 4
M  V30 2 1 4 5
M  V30 3 2 5 6
M  V30 4 1 6 7
M  V30 5 2 7 8
M  V30 6 1 8 9
M  V30 7 2 9 10
M  V30 8 1 10 11
M  V30 9 2 11 12
M  V30 10 1 12 13
M  V30 11 2 13 14
M  V30 12 1 14 5
M  V30 13 1 14 9
M  V30 14 1 6 15
M  V30 15 1 7 16
M  V30 16 1 8 17
M  V30 17 1 10 18
M  V30 18 1 11 19
M  V30 19 1 13 20
M  V30 20 2 21 22
M  V30 21 1 22 23
M  V30 22 2 23 24
M  V30 23 1 24 25
M  V30 24 2 25 26
M  V30 25 1 26 21
M  V30 26 1 22 27
M  V30 27 1 23 28
M  V30 28 1 24 29
M  V30 29 1 26 30
M  V30 30 2 31 32
M  V30 31 1 32 33
M  V30 32 2 33 34
M  V30 33 1 34 35
M  V30 34 2 35 36
M  V30 35 1 36 31
M  V30 36 1 32 37
M  V30 37 1 33 38
M  V30 38 1 35 39
M  V30 39 1 36 40
M  V30 40 1 3 21
M  V30 41 1 25 31
M  V30 42 3 41 42
M  V30 43 1 42 43
M  V30 44 2 43 44
M  V30 45 1 44 45
M  V30 46 2 45 46
M  V30 47 1 46 47
M  V30 48 2 47 48
M  V30 49 1 48 49
M  V30 50 2 49 50
M  V30 51 1 50 51
M  V30 52 2 51 52
M  V30 53 1 52 43
M  V30 54 1 52 47
M  V30 55 1 44 53
M  V30 56 1 45 54
M  V30 57 1 46 55
M  V30 58 1 48 56
M  V30 59 1 49 57
M  V30 60 1 51 58
M  V30 61 2 59 60
M  V30 62 1 60 61
M  V30 63 2 61 62
M  V30 64 1 62 63
M  V30 65 2 63 64
M  V30 66 1 64 59
M  V30 67 1 60 65
M  V30 68 1 61 66
M  V30 69 1 62 67
M  V30 70 1 64 68
M  V30 71 2 69 70
M  V30 72 1 70 71
M  V30 73 2 71 72
M  V30 74 1 72 73
M  V30 75 2 73 74
M  V30 76 1 74 69
M  V30 77 1 70 75
M  V30 78 1 71 76
M  V30 79 1 73 77
M  V30 80 1 74 78
M  V30 81 1 41 59
M  V30 82 1 63 69
M  V30 83 3 79 80
M  V30 84 1 80 81
M  V30 85 2 81 82
M  V30 86 1 82 83
M  V30 87 2 83 84
M  V30 88 1 84 85
M  V30 89 2 85 86
M  V30 90 1 86 87
M  V30 91 2 87 88
M  V30 92 1 88 89
M  V30 93 2 89 90
M  V30 94 1 90 81
M  V30 95 1 90 85
M  V30 96 1 82 91
M  V30 97 1 83 92
M  V30 98 1 84 93
M  V30 99 1 86 94
M  V30 100 1 87 95
M  V30 101 1 89 96
M  V30 102 2 97 98
M  V30 103 1 98 99
M  V30 104 2 99 100
M  V30 105 1 100 101
M  V30 106 2 101 102
M  V30 107 1 102 97
M  V30 108 1 98 103
M  V30 109 1 99 104
M  V30 110 1 100 105
M  V30 111 1 102 106
M  V30 112 2 107 108
M  V30 113 1 108 109
M  V30 114 2 109 110
M  V30 115 1 110 111
M  V30 116 2 111 112
M  V30 117 1 112 107
M  V30 118 1 108 113
M  V30 119 1 109 114
M  V30 120 1 111 115
M  V30 121 1 112 116
M  V30 122 1 79 97
M  V30 123 1 101 107
M  V30 124 3 117 118
M  V30 125 1 118 119
M  V30 126 2 119 120
M  V30 127 1 120 121
M  V30 128 2 121 122
M  V30 129 1 122 123
M  V30 130 2 123 124
M  V30 131 1 124 125
M  V30 132 2 125 126
M  V30 133 1 126 127
M  V30 134 2 127 128
M  V30 135 1 128 119
M  V30 136 1 128 123
M  V30 137 1 120 129
M  V30 138 1 121 130
M  V30 139 1 122 131
M  V30 140 1 124 132
M  V30 141 1 125 133
M  V30 142 1 127 134
M  V30 143 2 135 136
M  V30 144 1 136 137
M  V30 145 2 137 138
M  V30 146 1 138 139
M  V30 147 2 139 140
M  V30 148 1 140 135
M  V30 149 1 136 141
M  V30 150 1 137 142
M  V30 151 1 138 143
M  V30 152 1 140 144
M  V30 153 2 145 146
M  V30 154 1 146 147
M  V30 155 2 147 148
M  V30 156 1 148 149
M  V30 157 2 149 150
M  V30 158 1 150 145
M  V30 159 1 146 151
M  V30 160 1 147 152
M  V30 161 1 149 153
M  V30 162 1 150 154
M  V30 163 1 117 135
M  V30 164 1 139 145
M  V30 165 9 34 1
M  V30 166 9 72 1
M  V30 167 9 88 1
M  V30 168 9 126 1
M  V30 169 9 12 2
M  V30 170 9 50 2
M  V30 171 9 110 2
M  V30 172 9 148 2
M  V30 END BOND
M  V30 END CTAB
M  END

$$$$
