
     RDKit          3D

  0  0  0  0  0  0  0  0  0  0999 V3000
M  V30 BEGIN CTAB
M  V30 COUNTS 154 172 0 0 0
M  V30 BEGIN ATOM
M  V30 1 Pd -0.8652 -4.3013 -0.0310 0 CHG=2
M  V30 2 Pd 1.2998 4.7405 0.4449 0 CHG=2
M  V30 3 C 6.0330 1.5050 -1.6790 0
M  V30 4 C 6.1505 2.6929 -1.4823 0
M  V30 5 C 6.4179 4.0399 -1.1702 0
M  V30 6 C 7.6846 4.5495 -1.3926 0
M  V30 7 C 8.0239 5.8441 -0.9857 0
M  V30 8 C 7.1190 6.6354 -0.3231 0
M  V30 9 C 5.8152 6.1635 -0.0854 0
M  V30 10 C 4.8454 6.9149 0.6159 0
M  V30 11 C 3.5891 6.4114 0.7867 0
M  V30 12 N 3.2158 5.2185 0.2613 0
M  V30 13 C 4.1019 4.4720 -0.3684 0
M  V30 14 C 5.4366 4.8688 -0.5464 0
M  V30 15 H 8.4273 3.9316 -1.8736 0
M  V30 16 H 9.0212 6.2092 -1.1788 0
M  V30 17 H 7.3950 7.6194 0.0223 0
M  V30 18 H 5.1115 7.8811 1.0139 0
M  V30 19 H 2.8298 6.9468 1.3529 0
M  V30 20 H 3.7596 3.5212 -0.7697 0
M  V30 21 C 5.9212 0.1044 -1.8143 0
M  V30 22 C 7.0133 -0.6439 -2.2657 0
M  V30 23 C 6.9227 -2.0226 -2.3188 0
M  V30 24 C 5.7642 -2.6707 -1.9248 0
M  V30 25 C 4.6630 -1.9365 -1.4771 0
M  V30 26 C 4.7486 -0.5460 -1.4355 0
M  V30 27 H 7.9221 -0.1429 -2.5616 0
M  V30 28 H 7.7682 -2.6000 -2.6610 0
M  V30 29 H 5.7341 -3.7488 -1.9348 0
M  V30 30 H 3.9011 0.0472 -1.1319 0
M  V30 31 C 3.4339 -2.6050 -1.0396 0
M  V30 32 C 2.9865 -3.7967 -1.6193 0
M  V30 33 C 1.7923 -4.3511 -1.2065 0
M  V30 34 N 1.0291 -3.7765 -0.2723 0
M  V30 35 C 1.4559 -2.6571 0.3253 0
M  V30 36 C 2.6457 -2.0565 -0.0188 0
M  V30 37 H 3.5508 -4.2723 -2.4049 0
M  V30 38 H 1.4177 -5.2775 -1.6321 0
M  V30 39 H 0.8034 -2.2534 1.0983 0
M  V30 40 H 2.9782 -1.1751 0.5053 0
M  V30 41 C -0.1456 3.2006 -5.2742 0
M  V30 42 C 0.1060 4.3538 -5.0086 0
M  V30 43 C 0.2625 5.7322 -4.7672 0
M  V30 44 C 0.1248 6.6259 -5.8142 0
M  V30 45 C 0.1526 8.0070 -5.5931 0
M  V30 46 C 0.2835 8.5163 -4.3253 0
M  V30 47 C 0.4381 7.6456 -3.2311 0
M  V30 48 C 0.5482 8.1027 -1.8984 0
M  V30 49 C 0.7256 7.2061 -0.8854 0
M  V30 50 N 0.8489 5.8761 -1.1167 0
M  V30 51 C 0.7168 5.4078 -2.3424 0
M  V30 52 C 0.4715 6.2372 -3.4478 0
M  V30 53 H -0.0225 6.2505 -6.8153 0
M  V30 54 H 0.0450 8.6741 -6.4348 0
M  V30 55 H 0.2671 9.5811 -4.1538 0
M  V30 56 H 0.4860 9.1597 -1.6951 0
M  V30 57 H 0.7765 7.5204 0.1549 0
M  V30 58 H 0.8203 4.3340 -2.4813 0
M  V30 59 C -0.5355 1.8744 -5.5604 0
M  V30 60 C -0.9295 1.5265 -6.8564 0
M  V30 61 C -1.3888 0.2475 -7.1117 0
M  V30 62 C -1.4681 -0.6906 -6.0964 0
M  V30 63 C -1.0721 -0.3601 -4.7979 0
M  V30 64 C -0.5961 0.9249 -4.5425 0
M  V30 65 H -0.8814 2.2591 -7.6473 0
M  V30 66 H -1.6991 -0.0185 -8.1108 0
M  V30 67 H -1.8713 -1.6674 -6.3123 0
M  V30 68 H -0.2456 1.1948 -3.5592 0
M  V30 69 C -1.1668 -1.3345 -3.7068 0
M  V30 70 C -0.9787 -2.7050 -3.9134 0
M  V30 71 C -1.0299 -3.5712 -2.8405 0
M  V30 72 N -1.2394 -3.1426 -1.5924 0
M  V30 73 C -1.4588 -1.8398 -1.3746 0
M  V30 74 C -1.4430 -0.9185 -2.3972 0
M  V30 75 H -0.7675 -3.0895 -4.8978 0
M  V30 76 H -0.8933 -4.6413 -2.9661 0
M  V30 77 H -1.6495 -1.5571 -0.3403 0
M  V30 78 H -1.6576 0.1180 -2.1938 0
M  V30 79 C -5.5962 -1.0658 2.0976 0
M  V30 80 C -5.7153 -2.2524 1.8945 0
M  V30 81 C -5.9850 -3.5973 1.5753 0
M  V30 82 C -7.2538 -4.1046 1.7916 0
M  V30 83 C -7.5955 -5.3964 1.3776 0
M  V30 84 C -6.6907 -6.1869 0.7141 0
M  V30 85 C -5.3850 -5.7175 0.4826 0
M  V30 86 C -4.4149 -6.4685 -0.2190 0
M  V30 87 C -3.1568 -5.9675 -0.3839 0
M  V30 88 N -2.7820 -4.7779 0.1477 0
M  V30 89 C -3.6680 -4.0318 0.7782 0
M  V30 90 C -5.0042 -4.4260 0.9507 0
M  V30 91 H -7.9962 -3.4868 2.2732 0
M  V30 92 H -8.5943 -5.7595 1.5658 0
M  V30 93 H -6.9682 -7.1685 0.3633 0
M  V30 94 H -4.6823 -7.4322 -0.6220 0
M  V30 95 H -2.3973 -6.5026 -0.9501 0
M  V30 96 H -3.3242 -3.0838 1.1849 0
M  V30 97 C -5.4824 0.3338 2.2400 0
M  V30 98 C -6.5708 1.0809 2.7020 0
M  V30 99 C -6.4784 2.4593 2.7621 0
M  V30 100 C -5.3215 3.1082 2.3647 0
M  V30 101 C -4.2239 2.3754 1.9062 0
M  V30 102 C -4.3113 0.9852 1.8578 0
M  V30 103 H -7.4784 0.5793 3.0006 0
M  V30 104 H -7.3212 3.0357 3.1125 0
M  V30 105 H -5.2903 4.1861 2.3802 0
M  V30 106 H -3.4663 0.3928 1.5455 0
M  V30 107 C -2.9966 3.0447 1.4652 0
M  V30 108 C -2.5444 4.2324 2.0490 0
M  V30 109 C -1.3516 4.7875 1.6327 0
M  V30 110 N -0.5940 4.2168 0.6915 0
M  V30 111 C -1.0260 3.1014 0.0898 0
M  V30 112 C -2.2148 2.5007 0.4370 0
M  V30 113 H -3.1037 4.7046 2.8401 0
M  V30 114 H -0.9733 5.7110 2.0614 0
M  V30 115 H -0.3783 2.7010 -0.6887 0
M  V30 116 H -2.5515 1.6230 -0.0904 0
M  V30 117 C 0.6056 -2.7668 5.6855 0
M  V30 118 C 0.3496 -3.9192 5.4201 0
M  V30 119 C 0.1882 -5.2970 5.1787 0
M  V30 120 C 0.3290 -6.1917 6.2245 0
M  V30 121 C 0.2964 -7.5725 6.0030 0
M  V30 122 C 0.1574 -8.0808 4.7356 0
M  V30 123 C -0.0005 -7.2092 3.6427 0
M  V30 124 C -0.1182 -7.6651 2.3104 0
M  V30 125 C -0.2980 -6.7678 1.2986 0
M  V30 126 N -0.4166 -5.4375 1.5310 0
M  V30 127 C -0.2774 -4.9700 2.7563 0
M  V30 128 C -0.0289 -5.8007 3.8602 0
M  V30 129 H 0.4825 -5.8171 7.2251 0
M  V30 130 H 0.4065 -8.2404 6.8437 0
M  V30 131 H 0.1700 -9.1456 4.5634 0
M  V30 132 H -0.0600 -8.7224 2.1062 0
M  V30 133 H -0.3547 -7.0815 0.2585 0
M  V30 134 H -0.3770 -3.8962 2.8964 0
M  V30 135 C 1.0001 -1.4418 5.9702 0
M  V30 136 C 1.4065 -1.0967 7.2632 0
M  V30 137 C 1.8697 0.1813 7.5165 0
M  V30 138 C 1.9409 1.1212 6.5021 0
M  V30 139 C 1.5327 0.7933 5.2068 0
M  V30 140 C 1.0526 -0.4905 4.9535 0
M  V30 141 H 1.3647 -1.8307 8.0532 0
M  V30 142 H 2.1894 0.4451 8.5131 0
M  V30 143 H 2.3473 2.0969 6.7159 0
M  V30 144 H 0.6927 -0.7583 3.9731 0
M  V30 145 C 1.6195 1.7693 4.1163 0
M  V30 146 C 1.4352 3.1398 4.3262 0
M  V30 147 C 1.4795 4.0073 3.2541 0
M  V30 148 N 1.6786 3.5802 2.0040 0
M  V30 149 C 1.8937 2.2773 1.7825 0
M  V30 150 C 1.8841 1.3545 2.8039 0
M  V30 151 H 1.2325 3.5232 5.3130 0
M  V30 152 H 1.3457 5.0776 3.3821 0
M  V30 153 H 2.0754 1.9954 0.7462 0
M  V30 154 H 2.0947 0.3178 2.5976 0
M  V30 END ATOM
M  V30 BEGIN BOND
M  V30 1 3 3 4
M  V30 2 1 4 5
M  V30 3 2 5 6
M  V30 4 1 6 7
M  V30 5 2 7 8
M  V30 6 1 8 9
M  V30 7 2 9 10
M  V30 8 1 10 11
M  V30 9 2 11 12
M  V30 10 1 12 13
M  V30 11 2 13 14
M  V30 12 1 14 5
M  V30 13 1 14 9
M  V30 14 1 6 15
M  V30 15 1 7 16
M  V30 16 1 8 17
M  V30 17 1 10 18
M  V30 18 1 11 19
M  V30 19 1 13 20
M  V30 20 2 21 22
M  V30 21 1 22 23
M  V30 22 2 23 24
M  V30 23 1 24 25
M  V30 24 2 25 26
M  V30 25 1 26 21
M  V30 26 1 22 27
M  V30 27 1 23 28
M  V30 28 1 24 29
M  V30 29 1 26 30
M  V30 30 2 31 32
M  V30 31 1 32 33
M  V30 32 2 33 34
M  V30 33 1 34 35
M  V30 34 2 35 36
M  V30 35 1 36 31
M  V30 36 1 32 37
M  V30 37 1 33 38
M  V30 38 1 35 39
M  V30 39 1 36 40
M  V30 40 1 3 21
M  V30 41 1 25 31
M  V30 42 3 41 42
M  V30 43 1 42 43
M  V30 44 2 43 44
M  V30 45 1 44 45
M  V30 46 2 45 46
M  V30 47 1 46 47
M  V30 48 2 47 48
M  V30 49 1 48 49
M  V30 50 2 49 50
M  V30 51 1 50 51
M  V30 52 2 51 52
M  V30 53 1 52 43
M  V30 54 1 52 47
M  V30 55 1 44 53
M  V30 56 1 45 54
M  V30 57 1 46 55
M  V30 58 1 48 56
M  V30 59 1 49 57
M  V30 60 1 51 58
M  V30 61 2 59 60
M  V30 62 1 60 61
M  V30 63 2 61 62
M  V30 64 1 62 63
M  V30 65 2 63 64
M  V30 66 1 64 59
M  V30 67 1 60 65
M  V30 68 1 61 66
M  V30 69 1 62 67
M  V30 70 1 64 68
M  V30 71 2 69 70
M  V30 72 1 70 71
M  V30 73 2 71 72
M  V30 74 1 72 73
M  V30 75 2 73 74
M  V30 76 1 74 69
M  V30 77 1 70 75
M  V30 78 1 71 76
M  V30 79 1 73 77
M  V30 80 1 74 78
M  V30 81 1 41 59
M  V30 82 1 63 69
M  V30 83 3 79 80
M  V30 84 1 80 81
M  V30 85 2 81 82
M  V30 86 1 82 83
M  V30 87 2 83 84
M  V30 88 1 84 85
M  V30 89 2 85 86
M  V30 90 1 86 87
M  V30 91 2 87 88
M  V30 92 1 88 89
M  V30 93 2 89 90
M  V30 94 1 90 81
M  V30 95 1 90 85
M  V30 96 1 82 91
M  V30 97 1 83 92
M  V30 98 1 84 93
M  V30 99 1 86 94
M  V30 100 1 87 95
M  V30 101 1 89 96
M  V30 102 2 97 98
M  V30 103 1 98 99
M  V30 104 2 99 100
M  V30 105 1 100 101
M  V30 106 2 101 102
M  V30 107 1 102 97
M  V30 108 1 98 103
M  V30 109 1 99 104
M  V30 110 1 100 105
M  V30 111 1 102 106
M  V30 112 2 107 108
M  V30 113 1 108 109
M  V30 114 2 109 110
M  V30 115 1 110 111
M  V30 116 2 111 112
M  V30 117 1 112 107
M  V30 118 1 108 113
M  V30 119 1 109 114
M  V30 120 1 111 115
M  V30 121 1 112 116
M  V30 122 1 79 97
M  V30 123 1 101 107
M  V30 124 3 117 118
M  V30 125 1 118 119
M  V30 126 2 119 120
M  V30 127 1 120 121
M  V30 128 2 121 122
M  V30 129 1 122 123
M  V30 130 2 123 124
M  V30 131 1 124 125
M  V30 132 2 125 126
M  V30 133 1 126 127
M  V30 134 2 127 128
M  V30 135 1 128 119
M  V30 136 1 128 123
M  V30 137 1 120 129
M  V30 138 1 121 130
M  V30 139 1 122 131
M  V30 140 1 124 132
M  V30 141 1 125 133
M  V30 142 1 127 134
M  V30 143 2 135 136
M  V30 144 1 136 137
M  V30 145 2 137 138
M  V30 146 1 138 139
M  V30 147 2 139 140
M  V30 148 1 140 135
M  V30 149 1 136 141
M  V30 150 1 137 142
M  V30 151 1 138 143
M  V30 152 1 140 144
M  V30 153 2 145 146
M  V30 154 1 146 147
M  V30 155 2 147 148
M  V30 156 1 148 149
M  V30 157 2 149 150
M  V30 158 1 150 145
M  V30 159 1 146 151
M  V30 160 1 147 152
M  V30 161 1 149 153
M  V30 162 1 150 154
M  V30 163 1 117 135
M  V30 164 1 139 145
M  V30 165 9 34 1
M  V30 166 9 72 1
M  V30 167 9 88 1
M  V30 168 9 126 1
M  V30 169 9 12 2
M  V30 170 9 50 2
M  V30 171 9 110 2
M  V30 172 9 148 2
M  V30 END BOND
M  V30 END CTAB
M  END

$$$$
