
     RDKit          3D

  0  0  0  0  0  0  0  0  0  0999 V3000
M  V30 BEGIN CTAB
M  V30 COUNTS 154 172 0 0 0
M  V30 BEGIN ATOM
M  V30 1 Pd -0.4470 4.6337 -0.0145 0 CHG=2
M  V30 2 Pd 0.4387 -4.6336 0.0161 0 CHG=2
M  V30 3 C 5.9292 -1.9483 0.1784 0
M  V30 4 C 5.8457 -3.1530 0.1063 0
M  V30 5 C 5.8491 -4.5461 -0.1001 0
M  V30 6 C 7.0562 -5.2128 -0.2106 0
M  V30 7 C 7.1031 -6.5727 -0.5350 0
M  V30 8 C 5.9528 -7.2781 -0.7866 0
M  V30 9 C 4.7018 -6.6445 -0.6747 0
M  V30 10 C 3.4825 -7.3045 -0.9481 0
M  V30 11 C 2.3010 -6.6409 -0.7914 0
M  V30 12 N 2.2484 -5.3664 -0.3319 0
M  V30 13 C 3.3656 -4.7052 -0.1001 0
M  V30 14 C 4.6351 -5.2743 -0.2872 0
M  V30 15 H 7.9768 -4.6703 -0.0594 0
M  V30 16 H 8.0631 -7.0605 -0.6095 0
M  V30 17 H 5.9940 -8.3174 -1.0728 0
M  V30 18 H 3.4997 -8.3293 -1.2832 0
M  V30 19 H 1.3468 -7.1070 -1.0283 0
M  V30 20 H 3.2760 -3.6843 0.2632 0
M  V30 21 C 6.0221 -0.5398 0.1639 0
M  V30 22 C 7.2768 0.0782 0.1646 0
M  V30 23 C 7.3612 1.4550 0.0689 0
M  V30 24 C 6.2169 2.2280 -0.0331 0
M  V30 25 C 4.9563 1.6255 -0.0294 0
M  V30 26 C 4.8696 0.2388 0.0803 0
M  V30 27 H 8.1711 -0.5221 0.2313 0
M  V30 28 H 8.3301 1.9309 0.0628 0
M  V30 29 H 6.3112 3.2960 -0.1502 0
M  V30 30 H 3.9093 -0.2492 0.1255 0
M  V30 31 C 3.7340 2.4252 -0.1535 0
M  V30 32 C 3.6288 3.7138 0.3799 0
M  V30 33 C 2.4345 4.3981 0.2827 0
M  V30 34 N 1.3555 3.8629 -0.2956 0
M  V30 35 C 1.4436 2.6468 -0.8488 0
M  V30 36 C 2.6068 1.9119 -0.8094 0
M  V30 37 H 4.4623 4.1677 0.8907 0
M  V30 38 H 2.3195 5.4017 0.6820 0
M  V30 39 H 0.5390 2.2777 -1.3300 0
M  V30 40 H 2.6559 0.9504 -1.2945 0
M  V30 41 C 1.0636 -2.4214 5.6628 0
M  V30 42 C 1.0884 -3.6172 5.4806 0
M  V30 43 C 1.0064 -5.0192 5.3785 0
M  V30 44 C 1.1100 -5.7915 6.5215 0
M  V30 45 C 0.9129 -7.1758 6.4780 0
M  V30 46 C 0.5773 -7.8044 5.3050 0
M  V30 47 C 0.4721 -7.0612 4.1150 0
M  V30 48 C 0.1020 -7.6407 2.8804 0
M  V30 49 C 0.0469 -6.8685 1.7570 0
M  V30 50 N 0.3839 -5.5555 1.7707 0
M  V30 51 C 0.7005 -4.9707 2.9096 0
M  V30 52 C 0.7284 -5.6591 4.1324 0
M  V30 53 H 1.3307 -5.3152 7.4645 0
M  V30 54 H 1.0048 -7.7466 7.3895 0
M  V30 55 H 0.3894 -8.8663 5.2818 0
M  V30 56 H -0.1383 -8.6910 2.8403 0
M  V30 57 H -0.2702 -7.2739 0.7986 0
M  V30 58 H 0.9610 -3.9153 2.8743 0
M  V30 59 C 0.9343 -1.0333 5.8846 0
M  V30 60 C 1.0132 -0.5234 7.1845 0
M  V30 61 C 0.8035 0.8255 7.4042 0
M  V30 62 C 0.5105 1.6757 6.3513 0
M  V30 63 C 0.4346 1.1825 5.0463 0
M  V30 64 C 0.6593 -0.1748 4.8222 0
M  V30 65 H 1.2284 -1.1856 8.0090 0
M  V30 66 H 0.8579 1.2174 8.4085 0
M  V30 67 H 0.3076 2.7153 6.5548 0
M  V30 68 H 0.6474 -0.5750 3.8210 0
M  V30 69 C 0.1070 2.0643 3.9219 0
M  V30 70 C 0.5017 3.4057 3.8875 0
M  V30 71 C 0.2089 4.1760 2.7808 0
M  V30 72 N -0.4321 3.6780 1.7195 0
M  V30 73 C -0.8523 2.4068 1.7443 0
M  V30 74 C -0.6149 1.5830 2.8212 0
M  V30 75 H 1.0557 3.8377 4.7048 0
M  V30 76 H 0.4960 5.2219 2.7233 0
M  V30 77 H -1.3916 2.0679 0.8609 0
M  V30 78 H -0.9965 0.5750 2.8246 0
M  V30 79 C -5.9369 1.9476 -0.1818 0
M  V30 80 C -5.8530 3.1519 -0.1032 0
M  V30 81 C -5.8566 4.5438 0.1110 0
M  V30 82 C -7.0640 5.2091 0.2282 0
M  V30 83 C -7.1112 6.5671 0.5603 0
M  V30 84 C -5.9608 7.2719 0.8129 0
M  V30 85 C -4.7096 6.6400 0.6943 0
M  V30 86 C -3.4901 7.2995 0.9680 0
M  V30 87 C -2.3084 6.6376 0.8049 0
M  V30 88 N -2.2560 5.3656 0.3386 0
M  V30 89 C -3.3733 4.7047 0.1059 0
M  V30 90 C -4.6428 5.2719 0.2990 0
M  V30 91 H -7.9845 4.6666 0.0763 0
M  V30 92 H -8.0713 7.0536 0.6401 0
M  V30 93 H -6.0020 8.3095 1.1050 0
M  V30 94 H -3.5072 8.3224 1.3086 0
M  V30 95 H -1.3541 7.1034 1.0417 0
M  V30 96 H -3.2837 3.6859 -0.2633 0
M  V30 97 C -6.0300 0.5393 -0.1748 0
M  V30 98 C -7.2845 -0.0790 -0.1868 0
M  V30 99 C -7.3694 -1.4563 -0.0983 0
M  V30 100 C -6.2256 -2.2296 0.0075 0
M  V30 101 C -4.9652 -1.6271 0.0152 0
M  V30 102 C -4.8780 -0.2398 -0.0874 0
M  V30 103 H -8.1785 0.5215 -0.2565 0
M  V30 104 H -8.3382 -1.9324 -0.1009 0
M  V30 105 H -6.3206 -3.2981 0.1190 0
M  V30 106 H -3.9174 0.2485 -0.1235 0
M  V30 107 C -3.7435 -2.4270 0.1433 0
M  V30 108 C -3.6346 -3.7128 -0.3959 0
M  V30 109 C -2.4406 -4.3973 -0.2949 0
M  V30 110 N -1.3651 -3.8644 0.2923 0
M  V30 111 C -1.4573 -2.6512 0.8513 0
M  V30 112 C -2.6205 -1.9166 0.8088 0
M  V30 113 H -4.4648 -4.1646 -0.9139 0
M  V30 114 H -2.3228 -5.3988 -0.6986 0
M  V30 115 H -0.5558 -2.2841 1.3397 0
M  V30 116 H -2.6729 -0.9579 1.2987 0
M  V30 117 C -1.0466 2.4234 -5.6670 0
M  V30 118 C -1.0757 3.6190 -5.4836 0
M  V30 119 C -0.9983 5.0211 -5.3800 0
M  V30 120 C -1.0985 5.7941 -6.5230 0
M  V30 121 C -0.9059 7.1789 -6.4775 0
M  V30 122 C -0.5781 7.8075 -5.3023 0
M  V30 123 C -0.4765 7.0637 -4.1125 0
M  V30 124 C -0.1139 7.6432 -2.8758 0
M  V30 125 C -0.0615 6.8704 -1.7527 0
M  V30 126 N -0.3944 5.5564 -1.7689 0
M  V30 127 C -0.7041 4.9715 -2.9096 0
M  V30 128 C -0.7284 5.6609 -4.1321 0
M  V30 129 H -1.3131 5.3177 -7.4675 0
M  V30 130 H -0.9950 7.7500 -7.3890 0
M  V30 131 H -0.3936 8.8700 -5.2774 0
M  V30 132 H 0.1230 8.6945 -2.8336 0
M  V30 133 H 0.2501 7.2761 -0.7926 0
M  V30 134 H -0.9614 3.9154 -2.8766 0
M  V30 135 C -0.9123 1.0359 -5.8890 0
M  V30 136 C -0.9783 0.5273 -7.1902 0
M  V30 137 C -0.7641 -0.8211 -7.4093 0
M  V30 138 C -0.4792 -1.6720 -6.3546 0
M  V30 139 C -0.4161 -1.1798 -5.0485 0
M  V30 140 C -0.6455 0.1767 -4.8250 0
M  V30 141 H -1.1871 1.1900 -8.0160 0
M  V30 142 H -0.8086 -1.2119 -8.4144 0
M  V30 143 H -0.2725 -2.7108 -6.5571 0
M  V30 144 H -0.6436 0.5759 -3.8235 0
M  V30 145 C -0.0964 -2.0620 -3.9222 0
M  V30 146 C -0.4885 -3.4043 -3.8921 0
M  V30 147 C -0.2026 -4.1751 -2.7839 0
M  V30 148 N 0.4291 -3.6767 -1.7173 0
M  V30 149 C 0.8464 -2.4046 -1.7373 0
M  V30 150 C 0.6154 -1.5801 -2.8152 0
M  V30 151 H -1.0351 -3.8367 -4.7143 0
M  V30 152 H -0.4879 -5.2217 -2.7295 0
M  V30 153 H 1.3777 -2.0651 -0.8492 0
M  V30 154 H 0.9942 -0.5711 -2.8146 0
M  V30 END ATOM
M  V30 BEGIN BOND
M  V30 1 3 3 4
M  V30 2 1 4 5
M  V30 3 2 5 6
M  V30 4 1 6 7
M  V30 5 2 7 8
M  V30 6 1 8 9
M  V30 7 2 9 10
M  V30 8 1 10 11
M  V30 9 2 11 12
M  V30 10 1 12 13
M  V30 11 2 13 14
M  V30 12 1 14 5
M  V30 13 1 14 9
M  V30 14 1 6 15
M  V30 15 1 7 16
M  V30 16 1 8 17
M  V30 17 1 10 18
M  V30 18 1 11 19
M  V30 19 1 13 20
M  V30 20 2 21 22
M  V30 21 1 22 23
M  V30 22 2 23 24
M  V30 23 1 24 25
M  V30 24 2 25 26
M  V30 25 1 26 21
M  V30 26 1 22 27
M  V30 27 1 23 28
M  V30 28 1 24 29
M  V30 29 1 26 30
M  V30 30 2 31 32
M  V30 31 1 32 33
M  V30 32 2 33 34
M  V30 33 1 34 35
M  V30 34 2 35 36
M  V30 35 1 36 31
M  V30 36 1 32 37
M  V30 37 1 33 38
M  V30 38 1 35 39
M  V30 39 1 36 40
M  V30 40 1 3 21
M  V30 41 1 25 31
M  V30 42 3 41 42
M  V30 43 1 42 43
M  V30 44 2 43 44
M  V30 45 1 44 45
M  V30 46 2 45 46
M  V30 47 1 46 47
M  V30 48 2 47 48
M  V30 49 1 48 49
M  V30 50 2 49 50
M  V30 51 1 50 51
M  V30 52 2 51 52
M  V30 53 1 52 43
M  V30 54 1 52 47
M  V30 55 1 44 53
M  V30 56 1 45 54
M  V30 57 1 46 55
M  V30 58 1 48 56
M  V30 59 1 49 57
M  V30 60 1 51 58
M  V30 61 2 59 60
M  V30 62 1 60 61
M  V30 63 2 61 62
M  V30 64 1 62 63
M  V30 65 2 63 64
M  V30 66 1 64 59
M  V30 67 1 60 65
M  V30 68 1 61 66
M  V30 69 1 62 67
M  V30 70 1 64 68
M  V30 71 2 69 70
M  V30 72 1 70 71
M  V30 73 2 71 72
M  V30 74 1 72 73
M  V30 75 2 73 74
M  V30 76 1 74 69
M  V30 77 1 70 75
M  V30 78 1 71 76
M  V30 79 1 73 77
M  V30 80 1 74 78
M  V30 81 1 41 59
M  V30 82 1 63 69
M  V30 83 3 79 80
M  V30 84 1 80 81
M  V30 85 2 81 82
M  V30 86 1 82 83
M  V30 87 2 83 84
M  V30 88 1 84 85
M  V30 89 2 85 86
M  V30 90 1 86 87
M  V30 91 2 87 88
M  V30 92 1 88 89
M  V30 93 2 89 90
M  V30 94 1 90 81
M  V30 95 1 90 85
M  V30 96 1 82 91
M  V30 97 1 83 92
M  V30 98 1 84 93
M  V30 99 1 86 94
M  V30 100 1 87 95
M  V30 101 1 89 96
M  V30 102 2 97 98
M  V30 103 1 98 99
M  V30 104 2 99 100
M  V30 105 1 100 101
M  V30 106 2 101 102
M  V30 107 1 102 97
M  V30 108 1 98 103
M  V30 109 1 99 104
M  V30 110 1 100 105
M  V30 111 1 102 106
M  V30 112 2 107 108
M  V30 113 1 108 109
M  V30 114 2 109 110
M  V30 115 1 110 111
M  V30 116 2 111 112
M  V30 117 1 112 107
M  V30 118 1 108 113
M  V30 119 1 109 114
M  V30 120 1 111 115
M  V30 121 1 112 116
M  V30 122 1 79 97
M  V30 123 1 101 107
M  V30 124 3 117 118
M  V30 125 1 118 119
M  V30 126 2 119 120
M  V30 127 1 120 121
M  V30 128 2 121 122
M  V30 129 1 122 123
M  V30 130 2 123 124
M  V30 131 1 124 125
M  V30 132 2 125 126
M  V30 133 1 126 127
M  V30 134 2 127 128
M  V30 135 1 128 119
M  V30 136 1 128 123
M  V30 137 1 120 129
M  V30 138 1 121 130
M  V30 139 1 122 131
M  V30 140 1 124 132
M  V30 141 1 125 133
M  V30 142 1 127 134
M  V30 143 2 135 136
M  V30 144 1 136 137
M  V30 145 2 137 138
M  V30 146 1 138 139
M  V30 147 2 139 140
M  V30 148 1 140 135
M  V30 149 1 136 141
M  V30 150 1 137 142
M  V30 151 1 138 143
M  V30 152 1 140 144
M  V30 153 2 145 146
M  V30 154 1 146 147
M  V30 155 2 147 148
M  V30 156 1 148 149
M  V30 157 2 149 150
M  V30 158 1 150 145
M  V30 159 1 146 151
M  V30 160 1 147 152
M  V30 161 1 149 153
M  V30 162 1 150 154
M  V30 163 1 117 135
M  V30 164 1 139 145
M  V30 165 9 34 1
M  V30 166 9 72 1
M  V30 167 9 88 1
M  V30 168 9 126 1
M  V30 169 9 12 2
M  V30 170 9 50 2
M  V30 171 9 110 2
M  V30 172 9 148 2
M  V30 END BOND
M  V30 END CTAB
M  END

$$$$
