
     RDKit          3D

  0  0  0  0  0  0  0  0  0  0999 V3000
M  V30 BEGIN CTAB
M  V30 COUNTS 154 172 0 0 0
M  V30 BEGIN ATOM
M  V30 1 Pd -0.1757 4.5311 0.2889 0 CHG=2
M  V30 2 Pd 0.3590 -4.7140 -0.6646 0 CHG=2
M  V30 3 C -0.0360 -3.1808 5.2410 0
M  V30 4 C 0.1118 -4.3389 4.9241 0
M  V30 5 C 0.4044 -5.6907 4.6587 0
M  V30 6 C 0.5415 -6.5751 5.7136 0
M  V30 7 C 0.9492 -7.8961 5.5002 0
M  V30 8 C 1.2580 -8.3444 4.2401 0
M  V30 9 C 1.1220 -7.4837 3.1356 0
M  V30 10 C 1.4506 -7.8726 1.8174 0
M  V30 11 C 1.2672 -6.9989 0.7859 0
M  V30 12 N 0.7301 -5.7683 0.9737 0
M  V30 13 C 0.4441 -5.3556 2.1931 0
M  V30 14 C 0.6510 -6.1524 3.3302 0
M  V30 15 H 0.3458 -6.2349 6.7189 0
M  V30 16 H 1.0423 -8.5588 6.3471 0
M  V30 17 H 1.6077 -9.3527 4.0832 0
M  V30 18 H 1.8485 -8.8592 1.6409 0
M  V30 19 H 1.5441 -7.2526 -0.2353 0
M  V30 20 H 0.0192 -4.3602 2.2971 0
M  V30 21 C -0.1102 -1.8200 5.6091 0
M  V30 22 C -0.1644 -1.4632 6.9604 0
M  V30 23 C -0.1554 -0.1270 7.3160 0
M  V30 24 C -0.0879 0.8614 6.3487 0
M  V30 25 C -0.0390 0.5208 4.9945 0
M  V30 26 C -0.0613 -0.8255 4.6344 0
M  V30 27 H -0.2044 -2.2312 7.7175 0
M  V30 28 H -0.1906 0.1476 8.3594 0
M  V30 29 H -0.0386 1.8948 6.6538 0
M  V30 30 H -0.0644 -1.1159 3.5962 0
M  V30 31 C 0.0499 1.5520 3.9565 0
M  V30 32 C -0.5613 2.8026 4.0938 0
M  V30 33 C -0.4925 3.7139 3.0599 0
M  V30 34 N 0.1310 3.4371 1.9110 0
M  V30 35 C 0.7576 2.2622 1.7718 0
M  V30 36 C 0.7500 1.3109 2.7666 0
M  V30 37 H -1.1093 3.0522 4.9877 0
M  V30 38 H -0.9518 4.6952 3.1348 0
M  V30 39 H 1.2717 2.1079 0.8241 0
M  V30 40 H 1.2932 0.3887 2.6375 0
M  V30 41 C -5.4214 -3.0034 0.2467 0
M  V30 42 C -5.1655 -4.1678 0.0405 0
M  V30 43 C -4.9755 -5.5175 -0.3129 0
M  V30 44 C -6.0695 -6.3607 -0.3907 0
M  V30 45 C -5.9377 -7.6738 -0.8548 0
M  V30 46 C -4.7239 -8.1538 -1.2790 0
M  V30 47 C -3.5813 -7.3361 -1.2075 0
M  V30 48 C -2.3086 -7.7578 -1.6544 0
M  V30 49 C -1.2348 -6.9255 -1.5297 0
M  V30 50 N -1.3342 -5.7081 -0.9417 0
M  V30 51 C -2.5109 -5.2651 -0.5439 0
M  V30 52 C -3.6888 -6.0158 -0.6812 0
M  V30 53 H -7.0429 -5.9934 -0.1034 0
M  V30 54 H -6.8130 -8.3037 -0.8988 0
M  V30 55 H -4.6325 -9.1545 -1.6713 0
M  V30 56 H -2.2004 -8.7357 -2.0954 0
M  V30 57 H -0.2493 -7.2034 -1.8971 0
M  V30 58 H -2.5444 -4.2817 -0.0803 0
M  V30 59 C -5.7274 -1.6326 0.3874 0
M  V30 60 C -7.0574 -1.2253 0.5336 0
M  V30 61 C -7.3579 0.1232 0.5878 0
M  V30 62 C -6.3565 1.0747 0.4930 0
M  V30 63 C -5.0225 0.6835 0.3531 0
M  V30 64 C -4.7172 -0.6759 0.3121 0
M  V30 65 H -7.8417 -1.9641 0.5946 0
M  V30 66 H -8.3852 0.4371 0.6940 0
M  V30 67 H -6.6217 2.1202 0.4935 0
M  V30 68 H -3.6931 -1.0066 0.2459 0
M  V30 69 C -3.9513 1.6769 0.2323 0
M  V30 70 C -4.0051 2.9135 0.8836 0
M  V30 71 C -2.9449 3.7900 0.7746 0
M  V30 72 N -1.8471 3.4914 0.0740 0
M  V30 73 C -1.7877 2.3292 -0.5883 0
M  V30 74 C -2.8141 1.4131 -0.5434 0
M  V30 75 H -4.8542 3.1790 1.4919 0
M  V30 76 H -2.9560 4.7601 1.2629 0
M  V30 77 H -0.8786 2.1558 -1.1622 0
M  V30 78 H -2.7503 0.5018 -1.1156 0
M  V30 79 C 0.2243 2.9973 -5.6161 0
M  V30 80 C 0.0699 4.1545 -5.2992 0
M  V30 81 C -0.2303 5.5047 -5.0344 0
M  V30 82 C -0.3740 6.3874 -6.0900 0
M  V30 83 C -0.7893 7.7062 -5.8774 0
M  V30 84 C -1.0990 8.1537 -4.6173 0
M  V30 85 C -0.9564 7.2951 -3.5122 0
M  V30 86 C -1.2853 7.6834 -2.1939 0
M  V30 87 C -1.0956 6.8119 -1.1617 0
M  V30 88 N -0.5518 5.5841 -1.3490 0
M  V30 89 C -0.2650 5.1717 -2.5685 0
M  V30 90 C -0.4778 5.9664 -3.7060 0
M  V30 91 H -0.1776 6.0473 -7.0952 0
M  V30 92 H -0.8876 8.3672 -6.7248 0
M  V30 93 H -1.4546 9.1601 -4.4609 0
M  V30 94 H -1.6885 8.6678 -2.0178 0
M  V30 95 H -1.3724 7.0652 -0.1404 0
M  V30 96 H 0.1656 4.1787 -2.6719 0
M  V30 97 C 0.3060 1.6371 -5.9843 0
M  V30 98 C 0.3715 1.2807 -7.3351 0
M  V30 99 C 0.3697 -0.0555 -7.6911 0
M  V30 100 C 0.2984 -1.0444 -6.7245 0
M  V30 101 C 0.2381 -0.7042 -5.3708 0
M  V30 102 C 0.2532 0.6420 -5.0103 0
M  V30 103 H 0.4144 2.0490 -8.0918 0
M  V30 104 H 0.4136 -0.3298 -8.7342 0
M  V30 105 H 0.2547 -2.0777 -7.0302 0
M  V30 106 H 0.2473 0.9321 -3.9719 0
M  V30 107 C 0.1453 -1.7359 -4.3335 0
M  V30 108 C 0.7620 -2.9841 -4.4665 0
M  V30 109 C 0.6894 -3.8956 -3.4330 0
M  V30 110 N 0.0573 -3.6211 -2.2882 0
M  V30 111 C -0.5749 -2.4485 -2.1537 0
M  V30 112 C -0.5641 -1.4973 -3.1485 0
M  V30 113 H 1.3171 -3.2318 -5.3565 0
M  V30 114 H 1.1531 -4.8753 -3.5046 0
M  V30 115 H -1.0960 -2.2960 -1.2096 0
M  V30 116 H -1.1120 -0.5775 -3.0232 0
M  V30 117 C 5.6100 2.8177 -0.5971 0
M  V30 118 C 5.3530 3.9826 -0.3951 0
M  V30 119 C 5.1616 5.3333 -0.0463 0
M  V30 120 C 6.2555 6.1764 0.0349 0
M  V30 121 C 6.1217 7.4907 0.4947 0
M  V30 122 C 4.9058 7.9723 0.9112 0
M  V30 123 C 3.7634 7.1548 0.8361 0
M  V30 124 C 2.4887 7.5778 1.2756 0
M  V30 125 C 1.4153 6.7455 1.1481 0
M  V30 126 N 1.5171 5.5264 0.5640 0
M  V30 127 C 2.6957 5.0820 0.1729 0
M  V30 128 C 3.8732 5.8330 0.3140 0
M  V30 129 H 7.2302 5.8080 -0.2463 0
M  V30 130 H 6.9969 8.1206 0.5415 0
M  V30 131 H 4.8127 8.9741 1.3003 0
M  V30 132 H 2.3785 8.5572 1.7133 0
M  V30 133 H 0.4282 7.0247 1.5101 0
M  V30 134 H 2.7314 4.0975 -0.2876 0
M  V30 135 C 5.9162 1.4465 -0.7328 0
M  V30 136 C 7.2472 1.0380 -0.8661 0
M  V30 137 C 7.5470 -0.3110 -0.9158 0
M  V30 138 C 6.5439 -1.2616 -0.8291 0
M  V30 139 C 5.2091 -0.8689 -0.7020 0
M  V30 140 C 4.9045 0.4907 -0.6657 0
M  V30 141 H 8.0326 1.7760 -0.9207 0
M  V30 142 H 8.5750 -0.6258 -1.0120 0
M  V30 143 H 6.8081 -2.3071 -0.8257 0
M  V30 144 H 3.8802 0.8223 -0.6095 0
M  V30 145 C 4.1360 -1.8614 -0.5890 0
M  V30 146 C 4.1942 -3.0991 -1.2379 0
M  V30 147 C 3.1326 -3.9747 -1.1357 0
M  V30 148 N 2.0296 -3.6743 -0.4443 0
M  V30 149 C 1.9655 -2.5108 0.2152 0
M  V30 150 C 2.9927 -1.5953 0.1767 0
M  V30 151 H 5.0482 -3.3660 -1.8388 0
M  V30 152 H 3.1468 -4.9457 -1.6223 0
M  V30 153 H 1.0516 -2.3356 0.7813 0
M  V30 154 H 2.9249 -0.6828 0.7463 0
M  V30 END ATOM
M  V30 BEGIN BOND
M  V30 1 3 3 4
M  V30 2 1 4 5
M  V30 3 2 5 6
M  V30 4 1 6 7
M  V30 5 2 7 8
M  V30 6 1 8 9
M  V30 7 2 9 10
M  V30 8 1 10 11
M  V30 9 2 11 12
M  V30 10 1 12 13
M  V30 11 2 13 14
M  V30 12 1 14 5
M  V30 13 1 14 9
M  V30 14 1 6 15
M  V30 15 1 7 16
M  V30 16 1 8 17
M  V30 17 1 10 18
M  V30 18 1 11 19
M  V30 19 1 13 20
M  V30 20 2 21 22
M  V30 21 1 22 23
M  V30 22 2 23 24
M  V30 23 1 24 25
M  V30 24 2 25 26
M  V30 25 1 26 21
M  V30 26 1 22 27
M  V30 27 1 23 28
M  V30 28 1 24 29
M  V30 29 1 26 30
M  V30 30 2 31 32
M  V30 31 1 32 33
M  V30 32 2 33 34
M  V30 33 1 34 35
M  V30 34 2 35 36
M  V30 35 1 36 31
M  V30 36 1 32 37
M  V30 37 1 33 38
M  V30 38 1 35 39
M  V30 39 1 36 40
M  V30 40 1 3 21
M  V30 41 1 25 31
M  V30 42 3 41 42
M  V30 43 1 42 43
M  V30 44 2 43 44
M  V30 45 1 44 45
M  V30 46 2 45 46
M  V30 47 1 46 47
M  V30 48 2 47 48
M  V30 49 1 48 49
M  V30 50 2 49 50
M  V30 51 1 50 51
M  V30 52 2 51 52
M  V30 53 1 52 43
M  V30 54 1 52 47
M  V30 55 1 44 53
M  V30 56 1 45 54
M  V30 57 1 46 55
M  V30 58 1 48 56
M  V30 59 1 49 57
M  V30 60 1 51 58
M  V30 61 2 59 60
M  V30 62 1 60 61
M  V30 63 2 61 62
M  V30 64 1 62 63
M  V30 65 2 63 64
M  V30 66 1 64 59
M  V30 67 1 60 65
M  V30 68 1 61 66
M  V30 69 1 62 67
M  V30 70 1 64 68
M  V30 71 2 69 70
M  V30 72 1 70 71
M  V30 73 2 71 72
M  V30 74 1 72 73
M  V30 75 2 73 74
M  V30 76 1 74 69
M  V30 77 1 70 75
M  V30 78 1 71 76
M  V30 79 1 73 77
M  V30 80 1 74 78
M  V30 81 1 41 59
M  V30 82 1 63 69
M  V30 83 3 79 80
M  V30 84 1 80 81
M  V30 85 2 81 82
M  V30 86 1 82 83
M  V30 87 2 83 84
M  V30 88 1 84 85
M  V30 89 2 85 86
M  V30 90 1 86 87
M  V30 91 2 87 88
M  V30 92 1 88 89
M  V30 93 2 89 90
M  V30 94 1 90 81
M  V30 95 1 90 85
M  V30 96 1 82 91
M  V30 97 1 83 92
M  V30 98 1 84 93
M  V30 99 1 86 94
M  V30 100 1 87 95
M  V30 101 1 89 96
M  V30 102 2 97 98
M  V30 103 1 98 99
M  V30 104 2 99 100
M  V30 105 1 100 101
M  V30 106 2 101 102
M  V30 107 1 102 97
M  V30 108 1 98 103
M  V30 109 1 99 104
M  V30 110 1 100 105
M  V30 111 1 102 106
M  V30 112 2 107 108
M  V30 113 1 108 109
M  V30 114 2 109 110
M  V30 115 1 110 111
M  V30 116 2 111 112
M  V30 117 1 112 107
M  V30 118 1 108 113
M  V30 119 1 109 114
M  V30 120 1 111 115
M  V30 121 1 112 116
M  V30 122 1 79 97
M  V30 123 1 101 107
M  V30 124 3 117 118
M  V30 125 1 118 119
M  V30 126 2 119 120
M  V30 127 1 120 121
M  V30 128 2 121 122
M  V30 129 1 122 123
M  V30 130 2 123 124
M  V30 131 1 124 125
M  V30 132 2 125 126
M  V30 133 1 126 127
M  V30 134 2 127 128
M  V30 135 1 128 119
M  V30 136 1 128 123
M  V30 137 1 120 129
M  V30 138 1 121 130
M  V30 139 1 122 131
M  V30 140 1 124 132
M  V30 141 1 125 133
M  V30 142 1 127 134
M  V30 143 2 135 136
M  V30 144 1 136 137
M  V30 145 2 137 138
M  V30 146 1 138 139
M  V30 147 2 139 140
M  V30 148 1 140 135
M  V30 149 1 136 141
M  V30 150 1 137 142
M  V30 151 1 138 143
M  V30 152 1 140 144
M  V30 153 2 145 146
M  V30 154 1 146 147
M  V30 155 2 147 148
M  V30 156 1 148 149
M  V30 157 2 149 150
M  V30 158 1 150 145
M  V30 159 1 146 151
M  V30 160 1 147 152
M  V30 161 1 149 153
M  V30 162 1 150 154
M  V30 163 1 117 135
M  V30 164 1 139 145
M  V30 165 9 34 1
M  V30 166 9 72 1
M  V30 167 9 88 1
M  V30 168 9 126 1
M  V30 169 9 12 2
M  V30 170 9 50 2
M  V30 171 9 110 2
M  V30 172 9 148 2
M  V30 END BOND
M  V30 END CTAB
M  END

$$$$
