
     RDKit          3D

  0  0  0  0  0  0  0  0  0  0999 V3000
M  V30 BEGIN CTAB
M  V30 COUNTS 154 172 0 0 0
M  V30 BEGIN ATOM
M  V30 1 Pd 0.4470 4.5045 -1.0864 0 CHG=2
M  V30 2 Pd -0.4387 -4.5048 1.0849 0 CHG=2
M  V30 3 C -5.9292 -1.9349 0.2895 0
M  V30 4 C -5.8457 -3.0881 0.6456 0
M  V30 5 C -5.8491 -4.3922 1.1770 0
M  V30 6 C -7.0562 -5.0137 1.4426 0
M  V30 7 C -7.1031 -6.2576 2.0808 0
M  V30 8 C -5.9528 -6.8831 2.4927 0
M  V30 9 C -4.7018 -6.2941 2.2336 0
M  V30 10 C -3.4825 -6.8703 2.6559 0
M  V30 11 C -2.3010 -6.2629 2.3461 0
M  V30 12 N -2.2484 -5.1340 1.5970 0
M  V30 13 C -3.3656 -4.5468 1.2148 0
M  V30 14 C -4.6351 -5.0551 1.5317 0
M  V30 15 H -7.9768 -4.5225 1.1669 0
M  V30 16 H -8.0631 -6.7137 2.2690 0
M  V30 17 H -5.9940 -7.8246 3.0176 0
M  V30 18 H -3.4997 -7.7862 3.2248 0
M  V30 19 H -1.3468 -6.6594 2.6869 0
M  V30 20 H -3.2760 -3.6413 0.6194 0
M  V30 21 C -6.0221 -0.5633 -0.0310 0
M  V30 22 C -7.2768 0.0369 -0.1784 0
M  V30 23 C -7.3612 1.3970 -0.4125 0
M  V30 24 C -6.2169 2.1721 -0.4970 0
M  V30 25 C -4.9563 1.5860 -0.3576 0
M  V30 26 C -4.8696 0.2129 -0.1347 0
M  V30 27 H -8.1711 -0.5621 -0.1006 0
M  V30 28 H -8.3301 1.8608 -0.5196 0
M  V30 29 H -6.3112 3.2374 -0.6369 0
M  V30 30 H -3.9093 -0.2719 -0.0627 0
M  V30 31 C -3.7340 2.3922 -0.4269 0
M  V30 32 C -3.6288 3.5173 -1.2511 0
M  V30 33 C -2.4345 4.2051 -1.3193 0
M  V30 34 N -1.3555 3.8225 -0.6303 0
M  V30 35 C -1.4436 2.7727 0.1959 0
M  V30 36 C -2.6068 2.0494 0.3322 0
M  V30 37 H -4.4623 3.8369 -1.8551 0
M  V30 38 H -2.3195 5.0852 -1.9454 0
M  V30 39 H -0.5390 2.5284 0.7510 0
M  V30 40 H -2.6559 1.2307 1.0317 0
M  V30 41 C -1.0636 -3.6971 -4.9256 0
M  V30 42 C -1.0884 -4.8154 -4.4646 0
M  V30 43 C -1.0064 -6.1530 -4.0325 0
M  V30 44 C -1.1100 -7.1747 -4.9593 0
M  V30 45 C -0.9129 -8.5091 -4.5883 0
M  V30 46 C -0.5773 -8.8410 -3.2995 0
M  V30 47 C -0.4721 -7.8365 -2.3202 0
M  V30 48 C -0.1020 -8.1062 -0.9832 0
M  V30 49 C -0.0469 -7.0892 -0.0753 0
M  V30 50 N -0.3839 -5.8171 -0.4005 0
M  V30 51 C -0.7005 -5.5195 -1.6457 0
M  V30 52 C -0.7284 -6.4787 -2.6701 0
M  V30 53 H -1.3307 -6.9360 -5.9885 0
M  V30 54 H -1.0048 -9.2800 -5.3382 0
M  V30 55 H -0.3894 -9.8671 -3.0248 0
M  V30 56 H 0.1383 -9.1169 -0.6948 0
M  V30 57 H 0.2702 -7.2554 0.9519 0
M  V30 58 H -0.9610 -4.4859 -1.8621 0
M  V30 59 C -0.9343 -2.4014 -5.4708 0
M  V30 60 C -1.0132 -2.2149 -6.8546 0
M  V30 61 C -0.8035 -0.9567 -7.3883 0
M  V30 62 C -0.5105 0.1192 -6.5676 0
M  V30 63 C -0.4346 -0.0499 -5.1827 0
M  V30 64 C -0.6593 -1.3151 -4.6427 0
M  V30 65 H -1.2284 -3.0539 -7.4983 0
M  V30 66 H -0.8579 -0.8146 -8.4570 0
M  V30 67 H -0.3076 1.0808 -7.0121 0
M  V30 68 H -0.6474 -1.4661 -3.5751 0
M  V30 69 C -0.1070 1.0737 -4.3000 0
M  V30 70 C -0.5017 2.3849 -4.5852 0
M  V30 71 C -0.2089 3.3960 -3.6931 0
M  V30 72 N 0.4321 3.1643 -2.5439 0
M  V30 73 C 0.8523 1.9237 -2.2660 0
M  V30 74 C 0.6149 0.8676 -3.1165 0
M  V30 75 H -1.0557 2.6104 -5.4817 0
M  V30 76 H -0.4960 4.4256 -3.8857 0
M  V30 77 H 1.3916 1.8043 -1.3274 0
M  V30 78 H 0.9965 -0.1124 -2.8803 0
M  V30 79 C 5.9369 1.9351 -0.2859 0
M  V30 80 C 5.8530 3.0862 -0.6484 0
M  V30 81 C 5.8566 4.3874 -1.1870 0
M  V30 82 C 7.0640 5.0058 -1.4589 0
M  V30 83 C 7.1112 6.2461 -2.1041 0
M  V30 84 C 5.9608 6.8708 -2.5168 0
M  V30 85 C 4.7096 6.2850 -2.2515 0
M  V30 86 C 3.4901 6.8607 -2.6740 0
M  V30 87 C 2.3084 6.2565 -2.3583 0
M  V30 88 N 2.2560 5.1316 -1.6033 0
M  V30 89 C 3.3733 4.5449 -1.2203 0
M  V30 90 C 4.6428 5.0501 -1.5426 0
M  V30 91 H 7.9845 4.5149 -1.1825 0
M  V30 92 H 8.0713 6.6997 -2.2971 0
M  V30 93 H 6.0020 7.8093 -3.0470 0
M  V30 94 H 3.5072 7.7734 -3.2478 0
M  V30 95 H 1.3541 6.6527 -2.6990 0
M  V30 96 H 3.2837 3.6430 -0.6197 0
M  V30 97 C 6.0300 0.5654 0.0417 0
M  V30 98 C 7.2845 -0.0323 0.2002 0
M  V30 99 C 7.3694 -1.3913 0.4414 0
M  V30 100 C 6.2256 -2.1676 0.5222 0
M  V30 101 C 4.9652 -1.5841 0.3717 0
M  V30 102 C 4.8780 -0.2122 0.1418 0
M  V30 103 H 8.1785 0.5675 0.1253 0
M  V30 104 H 8.3382 -1.8531 0.5570 0
M  V30 105 H 6.3206 -3.2320 0.6677 0
M  V30 106 H 3.9174 0.2707 0.0609 0
M  V30 107 C 3.7435 -2.3916 0.4372 0
M  V30 108 C 3.6346 -3.5126 1.2664 0
M  V30 109 C 2.4406 -4.2014 1.3309 0
M  V30 110 N 1.3651 -3.8232 0.6339 0
M  V30 111 C 1.4573 -2.7775 -0.1972 0
M  V30 112 C 2.6205 -2.0538 -0.3304 0
M  V30 113 H 4.4648 -3.8283 1.8769 0
M  V30 114 H 2.3228 -5.0783 1.9609 0
M  V30 115 H 0.5558 -2.5370 -0.7588 0
M  V30 116 H 2.6729 -1.2389 -1.0340 0
M  V30 117 C 1.0466 3.7000 4.9292 0
M  V30 118 C 1.0757 4.8178 4.4671 0
M  V30 119 C 0.9983 6.1553 4.0335 0
M  V30 120 C 1.0985 7.1776 4.9602 0
M  V30 121 C 0.9059 8.5119 4.5871 0
M  V30 122 C 0.5781 8.8434 3.2962 0
M  V30 123 C 0.4765 7.8384 2.3171 0
M  V30 124 C 0.1139 8.1076 0.9781 0
M  V30 125 C 0.0615 7.0901 0.0707 0
M  V30 126 N 0.3944 5.8175 0.3985 0
M  V30 127 C 0.7041 5.5203 1.6456 0
M  V30 128 C 0.7284 6.4803 2.6693 0
M  V30 129 H 1.3131 6.9392 5.9908 0
M  V30 130 H 0.9950 9.2832 5.3368 0
M  V30 131 H 0.3936 9.8696 3.0196 0
M  V30 132 H -0.1230 9.1187 0.6875 0
M  V30 133 H -0.2501 7.2562 -0.9582 0
M  V30 134 H 0.9614 4.4866 1.8643 0
M  V30 135 C 0.9123 2.4050 5.4744 0
M  V30 136 C 0.9783 2.2199 6.8592 0
M  V30 137 C 0.7641 0.9622 7.3923 0
M  V30 138 C 0.4792 -0.1148 6.5699 0
M  V30 139 C 0.4161 0.0531 5.1843 0
M  V30 140 C 0.6455 1.3176 4.6450 0
M  V30 141 H 1.1871 3.0598 7.5040 0
M  V30 142 H 0.8086 0.8213 8.4615 0
M  V30 143 H 0.2725 -1.0758 7.0134 0
M  V30 144 H 0.6436 1.4676 3.5773 0
M  V30 145 C 0.0964 -1.0715 4.2997 0
M  V30 146 C 0.4885 -2.3825 4.5893 0
M  V30 147 C 0.2026 -3.3944 3.6959 0
M  V30 148 N -0.4291 -3.1636 2.5414 0
M  V30 149 C -0.8464 -1.9231 2.2587 0
M  V30 150 C -0.6154 -0.8663 3.1099 0
M  V30 151 H 1.0351 -2.6071 5.4907 0
M  V30 152 H 0.4879 -4.4240 3.8916 0
M  V30 153 H -1.3777 -1.8043 1.3154 0
M  V30 154 H -0.9942 0.1138 2.8697 0
M  V30 END ATOM
M  V30 BEGIN BOND
M  V30 1 3 3 4
M  V30 2 1 4 5
M  V30 3 2 5 6
M  V30 4 1 6 7
M  V30 5 2 7 8
M  V30 6 1 8 9
M  V30 7 2 9 10
M  V30 8 1 10 11
M  V30 9 2 11 12
M  V30 10 1 12 13
M  V30 11 2 13 14
M  V30 12 1 14 5
M  V30 13 1 14 9
M  V30 14 1 6 15
M  V30 15 1 7 16
M  V30 16 1 8 17
M  V30 17 1 10 18
M  V30 18 1 11 19
M  V30 19 1 13 20
M  V30 20 2 21 22
M  V30 21 1 22 23
M  V30 22 2 23 24
M  V30 23 1 24 25
M  V30 24 2 25 26
M  V30 25 1 26 21
M  V30 26 1 22 27
M  V30 27 1 23 28
M  V30 28 1 24 29
M  V30 29 1 26 30
M  V30 30 2 31 32
M  V30 31 1 32 33
M  V30 32 2 33 34
M  V30 33 1 34 35
M  V30 34 2 35 36
M  V30 35 1 36 31
M  V30 36 1 32 37
M  V30 37 1 33 38
M  V30 38 1 35 39
M  V30 39 1 36 40
M  V30 40 1 3 21
M  V30 41 1 25 31
M  V30 42 3 41 42
M  V30 43 1 42 43
M  V30 44 2 43 44
M  V30 45 1 44 45
M  V30 46 2 45 46
M  V30 47 1 46 47
M  V30 48 2 47 48
M  V30 49 1 48 49
M  V30 50 2 49 50
M  V30 51 1 50 51
M  V30 52 2 51 52
M  V30 53 1 52 43
M  V30 54 1 52 47
M  V30 55 1 44 53
M  V30 56 1 45 54
M  V30 57 1 46 55
M  V30 58 1 48 56
M  V30 59 1 49 57
M  V30 60 1 51 58
M  V30 61 2 59 60
M  V30 62 1 60 61
M  V30 63 2 61 62
M  V30 64 1 62 63
M  V30 65 2 63 64
M  V30 66 1 64 59
M  V30 67 1 60 65
M  V30 68 1 61 66
M  V30 69 1 62 67
M  V30 70 1 64 68
M  V30 71 2 69 70
M  V30 72 1 70 71
M  V30 73 2 71 72
M  V30 74 1 72 73
M  V30 75 2 73 74
M  V30 76 1 74 69
M  V30 77 1 70 75
M  V30 78 1 71 76
M  V30 79 1 73 77
M  V30 80 1 74 78
M  V30 81 1 41 59
M  V30 82 1 63 69
M  V30 83 3 79 80
M  V30 84 1 80 81
M  V30 85 2 81 82
M  V30 86 1 82 83
M  V30 87 2 83 84
M  V30 88 1 84 85
M  V30 89 2 85 86
M  V30 90 1 86 87
M  V30 91 2 87 88
M  V30 92 1 88 89
M  V30 93 2 89 90
M  V30 94 1 90 81
M  V30 95 1 90 85
M  V30 96 1 82 91
M  V30 97 1 83 92
M  V30 98 1 84 93
M  V30 99 1 86 94
M  V30 100 1 87 95
M  V30 101 1 89 96
M  V30 102 2 97 98
M  V30 103 1 98 99
M  V30 104 2 99 100
M  V30 105 1 100 101
M  V30 106 2 101 102
M  V30 107 1 102 97
M  V30 108 1 98 103
M  V30 109 1 99 104
M  V30 110 1 100 105
M  V30 111 1 102 106
M  V30 112 2 107 108
M  V30 113 1 108 109
M  V30 114 2 109 110
M  V30 115 1 110 111
M  V30 116 2 111 112
M  V30 117 1 112 107
M  V30 118 1 108 113
M  V30 119 1 109 114
M  V30 120 1 111 115
M  V30 121 1 112 116
M  V30 122 1 79 97
M  V30 123 1 101 107
M  V30 124 3 117 118
M  V30 125 1 118 119
M  V30 126 2 119 120
M  V30 127 1 120 121
M  V30 128 2 121 122
M  V30 129 1 122 123
M  V30 130 2 123 124
M  V30 131 1 124 125
M  V30 132 2 125 126
M  V30 133 1 126 127
M  V30 134 2 127 128
M  V30 135 1 128 119
M  V30 136 1 128 123
M  V30 137 1 120 129
M  V30 138 1 121 130
M  V30 139 1 122 131
M  V30 140 1 124 132
M  V30 141 1 125 133
M  V30 142 1 127 134
M  V30 143 2 135 136
M  V30 144 1 136 137
M  V30 145 2 137 138
M  V30 146 1 138 139
M  V30 147 2 139 140
M  V30 148 1 140 135
M  V30 149 1 136 141
M  V30 150 1 137 142
M  V30 151 1 138 143
M  V30 152 1 140 144
M  V30 153 2 145 146
M  V30 154 1 146 147
M  V30 155 2 147 148
M  V30 156 1 148 149
M  V30 157 2 149 150
M  V30 158 1 150 145
M  V30 159 1 146 151
M  V30 160 1 147 152
M  V30 161 1 149 153
M  V30 162 1 150 154
M  V30 163 1 117 135
M  V30 164 1 139 145
M  V30 165 9 34 1
M  V30 166 9 72 1
M  V30 167 9 88 1
M  V30 168 9 126 1
M  V30 169 9 12 2
M  V30 170 9 50 2
M  V30 171 9 110 2
M  V30 172 9 148 2
M  V30 END BOND
M  V30 END CTAB
M  END

$$$$
