
     RDKit          3D

  0  0  0  0  0  0  0  0  0  0999 V3000
M  V30 BEGIN CTAB
M  V30 COUNTS 154 172 0 0 0
M  V30 BEGIN ATOM
M  V30 1 Pd 0.8074 4.4279 -1.1702 0 CHG=2
M  V30 2 Pd -0.7755 -4.4142 1.2751 0 CHG=2
M  V30 3 C 4.8965 -2.7372 2.8242 0
M  V30 4 C 4.5320 -3.8773 3.0007 0
M  V30 5 C 4.2401 -5.2488 3.1302 0
M  V30 6 C 5.2084 -6.1052 3.6229 0
M  V30 7 C 5.0009 -7.4882 3.6545 0
M  V30 8 C 3.8427 -8.0393 3.1657 0
M  V30 9 C 2.8252 -7.2064 2.6658 0
M  V30 10 C 1.6221 -7.7101 2.1219 0
M  V30 11 C 0.6622 -6.8468 1.6810 0
M  V30 12 N 0.8009 -5.5025 1.7887 0
M  V30 13 C 1.9236 -4.9935 2.2574 0
M  V30 14 C 2.9977 -5.7915 2.6817 0
M  V30 15 H 6.1451 -5.7000 3.9738 0
M  V30 16 H 5.7779 -8.1254 4.0487 0
M  V30 17 H 3.7009 -9.1086 3.1571 0
M  V30 18 H 1.4770 -8.7766 2.0570 0
M  V30 19 H -0.2593 -7.2006 1.2232 0
M  V30 20 H 1.9927 -3.9103 2.3220 0
M  V30 21 C 5.3485 -1.4335 2.5270 0
M  V30 22 C 6.6570 -1.0571 2.8471 0
M  V30 23 C 7.1180 0.1940 2.4805 0
M  V30 24 C 6.2998 1.0760 1.7952 0
M  V30 25 C 4.9886 0.7166 1.4733 0
M  V30 26 C 4.5186 -0.5392 1.8538 0
M  V30 27 H 7.3014 -1.7467 3.3702 0
M  V30 28 H 8.1301 0.4813 2.7221 0
M  V30 29 H 6.6970 2.0288 1.4826 0
M  V30 30 H 3.4993 -0.8276 1.6534 0
M  V30 31 C 4.1125 1.6297 0.7332 0
M  V30 32 C 4.1840 3.0182 0.8852 0
M  V30 33 C 3.2957 3.8266 0.2059 0
M  V30 34 N 2.3468 3.3253 -0.5902 0
M  V30 35 C 2.2845 2.0018 -0.7827 0
M  V30 36 C 3.1490 1.1336 -0.1555 0
M  V30 37 H 4.9077 3.4626 1.5488 0
M  V30 38 H 3.3260 4.9084 0.2975 0
M  V30 39 H 1.5083 1.6575 -1.4647 0
M  V30 40 H 3.0955 0.0762 -0.3582 0
M  V30 41 C -1.3671 -0.7370 6.1018 0
M  V30 42 C -1.5962 -1.9194 6.2165 0
M  V30 43 C -2.0008 -3.2541 6.4111 0
M  V30 44 C -2.4556 -3.6523 7.6554 0
M  V30 45 C -2.9791 -4.9339 7.8568 0
M  V30 46 C -3.0882 -5.8231 6.8168 0
M  V30 47 C -2.6280 -5.4660 5.5362 0
M  V30 48 C -2.7372 -6.3220 4.4171 0
M  V30 49 C -2.2441 -5.9258 3.2082 0
M  V30 50 N -1.6016 -4.7430 3.0474 0
M  V30 51 C -1.5107 -3.9022 4.0593 0
M  V30 52 C -2.0377 -4.1852 5.3290 0
M  V30 53 H -2.4203 -2.9568 8.4799 0
M  V30 54 H -3.3216 -5.2107 8.8422 0
M  V30 55 H -3.5265 -6.7972 6.9671 0
M  V30 56 H -3.2154 -7.2817 4.5302 0
M  V30 57 H -2.3447 -6.5437 2.3185 0
M  V30 58 H -0.9895 -2.9637 3.8843 0
M  V30 59 C -1.1965 0.6550 5.9412 0
M  V30 60 C -1.3921 1.5127 7.0285 0
M  V30 61 C -1.3045 2.8804 6.8453 0
M  V30 62 C -1.0309 3.4099 5.5955 0
M  V30 63 C -0.8267 2.5658 4.5009 0
M  V30 64 C -0.9013 1.1865 4.6874 0
M  V30 65 H -1.6184 1.1038 8.0012 0
M  V30 66 H -1.4621 3.5421 7.6834 0
M  V30 67 H -1.0117 4.4809 5.4700 0
M  V30 68 H -0.7079 0.5109 3.8697 0
M  V30 69 C -0.5548 3.1091 3.1668 0
M  V30 70 C 0.1627 4.2947 2.9772 0
M  V30 71 C 0.4324 4.7329 1.6968 0
M  V30 72 N 0.0427 4.0498 0.6167 0
M  V30 73 C -0.6770 2.9315 0.7724 0
M  V30 74 C -1.0021 2.4431 2.0176 0
M  V30 75 H 0.5305 4.8564 3.8202 0
M  V30 76 H 0.9823 5.6515 1.5137 0
M  V30 77 H -0.9871 2.4349 -0.1460 0
M  V30 78 H -1.6123 1.5592 2.1088 0
M  V30 79 C -4.8626 2.7487 -2.7235 0
M  V30 80 C -4.5000 3.8902 -2.8938 0
M  V30 81 C -4.2109 5.2630 -3.0161 0
M  V30 82 C -5.1819 6.1201 -3.5026 0
M  V30 83 C -4.9776 7.5038 -3.5267 0
M  V30 84 C -3.8197 8.0546 -3.0369 0
M  V30 85 C -2.7995 7.2212 -2.5434 0
M  V30 86 C -1.5964 7.7245 -1.9990 0
M  V30 87 C -0.6339 6.8609 -1.5643 0
M  V30 88 N -0.7701 5.5168 -1.6788 0
M  V30 89 C -1.8925 5.0079 -2.1484 0
M  V30 90 C -2.9690 5.8059 -2.5667 0
M  V30 91 H -6.1183 5.7147 -3.8540 0
M  V30 92 H -5.7566 8.1414 -3.9160 0
M  V30 93 H -3.6801 9.1241 -3.0227 0
M  V30 94 H -1.4534 8.7909 -1.9289 0
M  V30 95 H 0.2876 7.2143 -1.1064 0
M  V30 96 H -1.9593 3.9249 -2.2187 0
M  V30 97 C -5.3125 1.4427 -2.4331 0
M  V30 98 C -6.6174 1.0628 -2.7633 0
M  V30 99 C -7.0768 -0.1908 -2.4033 0
M  V30 100 C -6.2603 -1.0719 -1.7146 0
M  V30 101 C -4.9528 -0.7089 -1.3825 0
M  V30 102 C -4.4843 0.5494 -1.7566 0
M  V30 103 H -7.2606 1.7516 -3.2890 0
M  V30 104 H -8.0862 -0.4809 -2.6527 0
M  V30 105 H -6.6566 -2.0268 -1.4073 0
M  V30 106 H -3.4675 0.8407 -1.5480 0
M  V30 107 C -4.0785 -1.6210 -0.6391 0
M  V30 108 C -4.1442 -3.0093 -0.7955 0
M  V30 109 C -3.2573 -3.8165 -0.1128 0
M  V30 110 N -2.3150 -3.3143 0.6905 0
M  V30 111 C -2.2589 -1.9911 0.8874 0
M  V30 112 C -3.1226 -1.1241 0.2574 0
M  V30 113 H -4.8621 -3.4544 -1.4649 0
M  V30 114 H -3.2832 -4.8982 -0.2079 0
M  V30 115 H -1.4884 -1.6461 1.5753 0
M  V30 116 H -3.0742 -0.0672 0.4639 0
M  V30 117 C 1.4245 0.7468 -5.9934 0
M  V30 118 C 1.6492 1.9300 -6.1085 0
M  V30 119 C 2.0492 3.2660 -6.3034 0
M  V30 120 C 2.5072 3.6643 -7.5466 0
M  V30 121 C 3.0261 4.9477 -7.7479 0
M  V30 122 C 3.1274 5.8388 -6.7089 0
M  V30 123 C 2.6638 5.4818 -5.4295 0
M  V30 124 C 2.7655 6.3396 -4.3113 0
M  V30 125 C 2.2699 5.9432 -3.1036 0
M  V30 126 N 1.6316 4.7580 -2.9432 0
M  V30 127 C 1.5476 3.9153 -3.9543 0
M  V30 128 C 2.0780 4.1989 -5.2226 0
M  V30 129 H 2.4780 2.9673 -8.3702 0
M  V30 130 H 3.3713 5.2243 -8.7325 0
M  V30 131 H 3.5623 6.8145 -6.8590 0
M  V30 132 H 3.2402 7.3013 -4.4240 0
M  V30 133 H 2.3651 6.5627 -2.2145 0
M  V30 134 H 1.0299 2.9750 -3.7800 0
M  V30 135 C 1.2587 -0.6456 -5.8312 0
M  V30 136 C 1.4668 -1.5046 -6.9152 0
M  V30 137 C 1.3833 -2.8723 -6.7300 0
M  V30 138 C 1.1016 -3.4006 -5.4814 0
M  V30 139 C 0.8850 -2.5551 -4.3903 0
M  V30 140 C 0.9554 -1.1760 -4.5790 0
M  V30 141 H 1.6995 -1.0966 -7.8868 0
M  V30 142 H 1.5505 -3.5350 -7.5655 0
M  V30 143 H 1.0858 -4.4713 -5.3539 0
M  V30 144 H 0.7524 -0.4995 -3.7642 0
M  V30 145 C 0.6051 -3.0970 -3.0572 0
M  V30 146 C -0.1088 -4.2851 -2.8703 0
M  V30 147 C -0.3854 -4.7221 -1.5911 0
M  V30 148 N -0.0058 -4.0356 -0.5096 0
M  V30 149 C 0.7101 -2.9144 -0.6623 0
M  V30 150 C 1.0415 -2.4268 -1.9061 0
M  V30 151 H -0.4685 -4.8498 -3.7149 0
M  V30 152 H -0.9329 -5.6426 -1.4099 0
M  V30 153 H 1.0116 -2.4146 0.2572 0
M  V30 154 H 1.6481 -1.5403 -1.9949 0
M  V30 END ATOM
M  V30 BEGIN BOND
M  V30 1 3 3 4
M  V30 2 1 4 5
M  V30 3 2 5 6
M  V30 4 1 6 7
M  V30 5 2 7 8
M  V30 6 1 8 9
M  V30 7 2 9 10
M  V30 8 1 10 11
M  V30 9 2 11 12
M  V30 10 1 12 13
M  V30 11 2 13 14
M  V30 12 1 14 5
M  V30 13 1 14 9
M  V30 14 1 6 15
M  V30 15 1 7 16
M  V30 16 1 8 17
M  V30 17 1 10 18
M  V30 18 1 11 19
M  V30 19 1 13 20
M  V30 20 2 21 22
M  V30 21 1 22 23
M  V30 22 2 23 24
M  V30 23 1 24 25
M  V30 24 2 25 26
M  V30 25 1 26 21
M  V30 26 1 22 27
M  V30 27 1 23 28
M  V30 28 1 24 29
M  V30 29 1 26 30
M  V30 30 2 31 32
M  V30 31 1 32 33
M  V30 32 2 33 34
M  V30 33 1 34 35
M  V30 34 2 35 36
M  V30 35 1 36 31
M  V30 36 1 32 37
M  V30 37 1 33 38
M  V30 38 1 35 39
M  V30 39 1 36 40
M  V30 40 1 3 21
M  V30 41 1 25 31
M  V30 42 3 41 42
M  V30 43 1 42 43
M  V30 44 2 43 44
M  V30 45 1 44 45
M  V30 46 2 45 46
M  V30 47 1 46 47
M  V30 48 2 47 48
M  V30 49 1 48 49
M  V30 50 2 49 50
M  V30 51 1 50 51
M  V30 52 2 51 52
M  V30 53 1 52 43
M  V30 54 1 52 47
M  V30 55 1 44 53
M  V30 56 1 45 54
M  V30 57 1 46 55
M  V30 58 1 48 56
M  V30 59 1 49 57
M  V30 60 1 51 58
M  V30 61 2 59 60
M  V30 62 1 60 61
M  V30 63 2 61 62
M  V30 64 1 62 63
M  V30 65 2 63 64
M  V30 66 1 64 59
M  V30 67 1 60 65
M  V30 68 1 61 66
M  V30 69 1 62 67
M  V30 70 1 64 68
M  V30 71 2 69 70
M  V30 72 1 70 71
M  V30 73 2 71 72
M  V30 74 1 72 73
M  V30 75 2 73 74
M  V30 76 1 74 69
M  V30 77 1 70 75
M  V30 78 1 71 76
M  V30 79 1 73 77
M  V30 80 1 74 78
M  V30 81 1 41 59
M  V30 82 1 63 69
M  V30 83 3 79 80
M  V30 84 1 80 81
M  V30 85 2 81 82
M  V30 86 1 82 83
M  V30 87 2 83 84
M  V30 88 1 84 85
M  V30 89 2 85 86
M  V30 90 1 86 87
M  V30 91 2 87 88
M  V30 92 1 88 89
M  V30 93 2 89 90
M  V30 94 1 90 81
M  V30 95 1 90 85
M  V30 96 1 82 91
M  V30 97 1 83 92
M  V30 98 1 84 93
M  V30 99 1 86 94
M  V30 100 1 87 95
M  V30 101 1 89 96
M  V30 102 2 97 98
M  V30 103 1 98 99
M  V30 104 2 99 100
M  V30 105 1 100 101
M  V30 106 2 101 102
M  V30 107 1 102 97
M  V30 108 1 98 103
M  V30 109 1 99 104
M  V30 110 1 100 105
M  V30 111 1 102 106
M  V30 112 2 107 108
M  V30 113 1 108 109
M  V30 114 2 109 110
M  V30 115 1 110 111
M  V30 116 2 111 112
M  V30 117 1 112 107
M  V30 118 1 108 113
M  V30 119 1 109 114
M  V30 120 1 111 115
M  V30 121 1 112 116
M  V30 122 1 79 97
M  V30 123 1 101 107
M  V30 124 3 117 118
M  V30 125 1 118 119
M  V30 126 2 119 120
M  V30 127 1 120 121
M  V30 128 2 121 122
M  V30 129 1 122 123
M  V30 130 2 123 124
M  V30 131 1 124 125
M  V30 132 2 125 126
M  V30 133 1 126 127
M  V30 134 2 127 128
M  V30 135 1 128 119
M  V30 136 1 128 123
M  V30 137 1 120 129
M  V30 138 1 121 130
M  V30 139 1 122 131
M  V30 140 1 124 132
M  V30 141 1 125 133
M  V30 142 1 127 134
M  V30 143 2 135 136
M  V30 144 1 136 137
M  V30 145 2 137 138
M  V30 146 1 138 139
M  V30 147 2 139 140
M  V30 148 1 140 135
M  V30 149 1 136 141
M  V30 150 1 137 142
M  V30 151 1 138 143
M  V30 152 1 140 144
M  V30 153 2 145 146
M  V30 154 1 146 147
M  V30 155 2 147 148
M  V30 156 1 148 149
M  V30 157 2 149 150
M  V30 158 1 150 145
M  V30 159 1 146 151
M  V30 160 1 147 152
M  V30 161 1 149 153
M  V30 162 1 150 154
M  V30 163 1 117 135
M  V30 164 1 139 145
M  V30 165 9 34 1
M  V30 166 9 72 1
M  V30 167 9 88 1
M  V30 168 9 126 1
M  V30 169 9 12 2
M  V30 170 9 50 2
M  V30 171 9 110 2
M  V30 172 9 148 2
M  V30 END BOND
M  V30 END CTAB
M  END

$$$$
