
     RDKit          3D

  0  0  0  0  0  0  0  0  0  0999 V3000
M  V30 BEGIN CTAB
M  V30 COUNTS 154 172 0 0 0
M  V30 BEGIN ATOM
M  V30 1 Pd 1.3052 -4.4294 0.0776 0 CHG=2
M  V30 2 Pd -1.5358 4.3808 -0.9104 0 CHG=2
M  V30 3 C 3.8373 3.5285 -3.7007 0
M  V30 4 C 3.3425 4.6318 -3.6626 0
M  V30 5 C 2.9067 5.9673 -3.5638 0
M  V30 6 C 3.6740 6.9745 -4.1210 0
M  V30 7 C 3.3394 8.3208 -3.9412 0
M  V30 8 C 2.2579 8.6832 -3.1777 0
M  V30 9 C 1.4419 7.6928 -2.6011 0
M  V30 10 C 0.3320 7.9976 -1.7812 0
M  V30 11 C -0.4369 6.9899 -1.2769 0
M  V30 12 N -0.2008 5.6884 -1.5744 0
M  V30 13 C 0.8462 5.3615 -2.3066 0
M  V30 14 C 1.7359 6.3159 -2.8244 0
M  V30 15 H 4.5540 6.7168 -4.6902 0
M  V30 16 H 3.9599 9.0795 -4.3935 0
M  V30 17 H 2.0238 9.7228 -3.0102 0
M  V30 18 H 0.1064 9.0283 -1.5587 0
M  V30 19 H -1.2758 7.1874 -0.6128 0
M  V30 20 H 0.9993 4.3057 -2.5166 0
M  V30 21 C 4.4567 2.2608 -3.6581 0
M  V30 22 C 5.7028 2.0707 -4.2642 0
M  V30 23 C 6.3401 0.8490 -4.1493 0
M  V30 24 C 5.7603 -0.1864 -3.4359 0
M  V30 25 C 4.5134 -0.0136 -2.8296 0
M  V30 26 C 3.8641 1.2133 -2.9559 0
M  V30 27 H 6.1633 2.8795 -4.8104 0
M  V30 28 H 7.3049 0.7050 -4.6117 0
M  V30 29 H 6.2974 -1.1152 -3.3246 0
M  V30 30 H 2.8840 1.3617 -2.5321 0
M  V30 31 C 3.8910 -1.0919 -2.0559 0
M  V30 32 C 4.0567 -2.4402 -2.3894 0
M  V30 33 C 3.4005 -3.4101 -1.6595 0
M  V30 34 N 2.5896 -3.1050 -0.6424 0
M  V30 35 C 2.4469 -1.8242 -0.2793 0
M  V30 36 C 3.0848 -0.8031 -0.9465 0
M  V30 37 H 4.6695 -2.7284 -3.2278 0
M  V30 38 H 3.5103 -4.4662 -1.8883 0
M  V30 39 H 1.7957 -1.6428 0.5747 0
M  V30 40 H 2.9771 0.2146 -0.6080 0
M  V30 41 C -2.7487 1.1794 -5.9552 0
M  V30 42 C -3.1029 2.3336 -5.8772 0
M  V30 43 C -3.6583 3.6265 -5.8249 0
M  V30 44 C -4.3883 4.0972 -6.9016 0
M  V30 45 C -5.0562 5.3249 -6.8400 0
M  V30 46 C -5.0344 6.0835 -5.6964 0
M  V30 47 C -4.2955 5.6505 -4.5802 0
M  V30 48 C -4.2549 6.3681 -3.3635 0
M  V30 49 C -3.4947 5.9076 -2.3284 0
M  V30 50 N -2.7280 4.7952 -2.4397 0
M  V30 51 C -2.7662 4.0794 -3.5467 0
M  V30 52 C -3.5614 4.4306 -4.6487 0
M  V30 53 H -4.4564 3.4992 -7.7975 0
M  V30 54 H -5.6136 5.6613 -7.7009 0
M  V30 55 H -5.5809 7.0117 -5.6392 0
M  V30 56 H -4.8314 7.2738 -3.2644 0
M  V30 57 H -3.4702 6.4146 -1.3662 0
M  V30 58 H -2.1373 3.1931 -3.5910 0
M  V30 59 C -2.4232 -0.1933 -6.0033 0
M  V30 60 C -2.7545 -0.9505 -7.1315 0
M  V30 61 C -2.5076 -2.3110 -7.1389 0
M  V30 62 C -1.9412 -2.9324 -6.0388 0
M  V30 63 C -1.5988 -2.1884 -4.9068 0
M  V30 64 C -1.8348 -0.8146 -4.9037 0
M  V30 65 H -3.2081 -0.4716 -7.9855 0
M  V30 66 H -2.7696 -2.8961 -8.0073 0
M  V30 67 H -1.7997 -4.0015 -6.0528 0
M  V30 68 H -1.5431 -0.2097 -4.0601 0
M  V30 69 C -1.0158 -2.8323 -3.7260 0
M  V30 70 C -0.1699 -3.9420 -3.8238 0
M  V30 71 C 0.3906 -4.4767 -2.6819 0
M  V30 72 N 0.1656 -3.9578 -1.4714 0
M  V30 73 C -0.6696 -2.9184 -1.3485 0
M  V30 74 C -1.2816 -2.3440 -2.4394 0
M  V30 75 H 0.0705 -4.3680 -4.7841 0
M  V30 76 H 1.0474 -5.3409 -2.7213 0
M  V30 77 H -0.8326 -2.5580 -0.3338 0
M  V30 78 H -1.9755 -1.5305 -2.3033 0
M  V30 79 C -4.0655 -3.5751 2.8719 0
M  V30 80 C -3.5735 -4.6794 2.8278 0
M  V30 81 C -3.1419 -6.0157 2.7224 0
M  V30 82 C -3.9130 -7.0234 3.2739 0
M  V30 83 C -3.5829 -8.3699 3.0876 0
M  V30 84 C -2.5019 -8.7318 2.3231 0
M  V30 85 C -1.6821 -7.7413 1.7524 0
M  V30 86 C -0.5723 -8.0457 0.9320 0
M  V30 87 C 0.2003 -7.0380 0.4333 0
M  V30 88 N -0.0320 -5.7372 0.7368 0
M  V30 89 C -1.0785 -5.4104 1.4698 0
M  V30 90 C -1.9716 -6.3646 1.9823 0
M  V30 91 H -4.7926 -6.7655 3.8437 0
M  V30 92 H -4.2063 -9.1286 3.5353 0
M  V30 93 H -2.2712 -9.7713 2.1504 0
M  V30 94 H -0.3498 -9.0759 0.7047 0
M  V30 95 H 1.0392 -7.2351 -0.2309 0
M  V30 96 H -1.2281 -4.3552 1.6850 0
M  V30 97 C -4.6816 -2.3057 2.8357 0
M  V30 98 C -5.9225 -2.1127 3.4515 0
M  V30 99 C -6.5572 -0.8889 3.3429 0
M  V30 100 C -5.9796 0.1457 2.6264 0
M  V30 101 C -4.7380 -0.0300 2.0105 0
M  V30 102 C -4.0913 -1.2589 2.1305 0
M  V30 103 H -6.3814 -2.9208 4.0001 0
M  V30 104 H -7.5180 -0.7427 3.8128 0
M  V30 105 H -6.5149 1.0760 2.5203 0
M  V30 106 H -3.1150 -1.4096 1.6987 0
M  V30 107 C -4.1180 1.0475 1.2337 0
M  V30 108 C -4.2770 2.3956 1.5704 0
M  V30 109 C -3.6229 3.3647 0.8374 0
M  V30 110 N -2.8196 3.0586 -0.1857 0
M  V30 111 C -2.6840 1.7778 -0.5518 0
M  V30 112 C -3.3206 0.7578 0.1181 0
M  V30 113 H -4.8831 2.6846 2.4135 0
M  V30 114 H -3.7275 4.4207 1.0687 0
M  V30 115 H -2.0394 1.5956 -1.4105 0
M  V30 116 H -3.2188 -0.2596 -0.2230 0
M  V30 117 C 2.5418 -1.2208 5.1145 0
M  V30 118 C 2.8919 -2.3764 5.0377 0
M  V30 119 C 3.4429 -3.6712 4.9865 0
M  V30 120 C 4.1760 -4.1414 6.0615 0
M  V30 121 C 4.8394 -5.3714 6.0005 0
M  V30 122 C 4.8105 -6.1329 4.8590 0
M  V30 123 C 4.0685 -5.7005 3.7448 0
M  V30 124 C 4.0209 -6.4208 2.5300 0
M  V30 125 C 3.2585 -5.9605 1.4965 0
M  V30 126 N 2.4958 -4.8453 1.6078 0
M  V30 127 C 2.5403 -4.1269 2.7128 0
M  V30 128 C 3.3386 -4.4780 3.8128 0
M  V30 129 H 4.2496 -3.5412 6.9555 0
M  V30 130 H 5.3993 -5.7074 6.8599 0
M  V30 131 H 5.3536 -7.0631 4.8021 0
M  V30 132 H 4.5941 -7.3289 2.4309 0
M  V30 133 H 3.2289 -6.4699 0.5358 0
M  V30 134 H 1.9147 -3.2385 2.7575 0
M  V30 135 C 2.2206 0.1529 5.1603 0
M  V30 136 C 2.5633 0.9132 6.2831 0
M  V30 137 C 2.3201 2.2744 6.2877 0
M  V30 138 C 1.7460 2.8936 5.1902 0
M  V30 139 C 1.3925 2.1464 4.0638 0
M  V30 140 C 1.6246 0.7721 4.0635 0
M  V30 141 H 3.0229 0.4360 7.1350 0
M  V30 142 H 2.5908 2.8618 7.1519 0
M  V30 143 H 1.6075 3.9629 5.2015 0
M  V30 144 H 1.3244 0.1649 3.2246 0
M  V30 145 C 0.8020 2.7879 2.8852 0
M  V30 146 C -0.0401 3.9002 2.9854 0
M  V30 147 C -0.6070 4.4329 1.8457 0
M  V30 148 N -0.3918 3.9095 0.6354 0
M  V30 149 C 0.4393 2.8672 0.5099 0
M  V30 150 C 1.0571 2.2943 1.5984 0
M  V30 151 H -0.2725 4.3299 3.9461 0
M  V30 152 H -1.2613 5.2989 1.8868 0
M  V30 153 H 0.5939 2.5027 -0.5048 0
M  V30 154 H 1.7473 1.4781 1.4604 0
M  V30 END ATOM
M  V30 BEGIN BOND
M  V30 1 3 3 4
M  V30 2 1 4 5
M  V30 3 2 5 6
M  V30 4 1 6 7
M  V30 5 2 7 8
M  V30 6 1 8 9
M  V30 7 2 9 10
M  V30 8 1 10 11
M  V30 9 2 11 12
M  V30 10 1 12 13
M  V30 11 2 13 14
M  V30 12 1 14 5
M  V30 13 1 14 9
M  V30 14 1 6 15
M  V30 15 1 7 16
M  V30 16 1 8 17
M  V30 17 1 10 18
M  V30 18 1 11 19
M  V30 19 1 13 20
M  V30 20 2 21 22
M  V30 21 1 22 23
M  V30 22 2 23 24
M  V30 23 1 24 25
M  V30 24 2 25 26
M  V30 25 1 26 21
M  V30 26 1 22 27
M  V30 27 1 23 28
M  V30 28 1 24 29
M  V30 29 1 26 30
M  V30 30 2 31 32
M  V30 31 1 32 33
M  V30 32 2 33 34
M  V30 33 1 34 35
M  V30 34 2 35 36
M  V30 35 1 36 31
M  V30 36 1 32 37
M  V30 37 1 33 38
M  V30 38 1 35 39
M  V30 39 1 36 40
M  V30 40 1 3 21
M  V30 41 1 25 31
M  V30 42 3 41 42
M  V30 43 1 42 43
M  V30 44 2 43 44
M  V30 45 1 44 45
M  V30 46 2 45 46
M  V30 47 1 46 47
M  V30 48 2 47 48
M  V30 49 1 48 49
M  V30 50 2 49 50
M  V30 51 1 50 51
M  V30 52 2 51 52
M  V30 53 1 52 43
M  V30 54 1 52 47
M  V30 55 1 44 53
M  V30 56 1 45 54
M  V30 57 1 46 55
M  V30 58 1 48 56
M  V30 59 1 49 57
M  V30 60 1 51 58
M  V30 61 2 59 60
M  V30 62 1 60 61
M  V30 63 2 61 62
M  V30 64 1 62 63
M  V30 65 2 63 64
M  V30 66 1 64 59
M  V30 67 1 60 65
M  V30 68 1 61 66
M  V30 69 1 62 67
M  V30 70 1 64 68
M  V30 71 2 69 70
M  V30 72 1 70 71
M  V30 73 2 71 72
M  V30 74 1 72 73
M  V30 75 2 73 74
M  V30 76 1 74 69
M  V30 77 1 70 75
M  V30 78 1 71 76
M  V30 79 1 73 77
M  V30 80 1 74 78
M  V30 81 1 41 59
M  V30 82 1 63 69
M  V30 83 3 79 80
M  V30 84 1 80 81
M  V30 85 2 81 82
M  V30 86 1 82 83
M  V30 87 2 83 84
M  V30 88 1 84 85
M  V30 89 2 85 86
M  V30 90 1 86 87
M  V30 91 2 87 88
M  V30 92 1 88 89
M  V30 93 2 89 90
M  V30 94 1 90 81
M  V30 95 1 90 85
M  V30 96 1 82 91
M  V30 97 1 83 92
M  V30 98 1 84 93
M  V30 99 1 86 94
M  V30 100 1 87 95
M  V30 101 1 89 96
M  V30 102 2 97 98
M  V30 103 1 98 99
M  V30 104 2 99 100
M  V30 105 1 100 101
M  V30 106 2 101 102
M  V30 107 1 102 97
M  V30 108 1 98 103
M  V30 109 1 99 104
M  V30 110 1 100 105
M  V30 111 1 102 106
M  V30 112 2 107 108
M  V30 113 1 108 109
M  V30 114 2 109 110
M  V30 115 1 110 111
M  V30 116 2 111 112
M  V30 117 1 112 107
M  V30 118 1 108 113
M  V30 119 1 109 114
M  V30 120 1 111 115
M  V30 121 1 112 116
M  V30 122 1 79 97
M  V30 123 1 101 107
M  V30 124 3 117 118
M  V30 125 1 118 119
M  V30 126 2 119 120
M  V30 127 1 120 121
M  V30 128 2 121 122
M  V30 129 1 122 123
M  V30 130 2 123 124
M  V30 131 1 124 125
M  V30 132 2 125 126
M  V30 133 1 126 127
M  V30 134 2 127 128
M  V30 135 1 128 119
M  V30 136 1 128 123
M  V30 137 1 120 129
M  V30 138 1 121 130
M  V30 139 1 122 131
M  V30 140 1 124 132
M  V30 141 1 125 133
M  V30 142 1 127 134
M  V30 143 2 135 136
M  V30 144 1 136 137
M  V30 145 2 137 138
M  V30 146 1 138 139
M  V30 147 2 139 140
M  V30 148 1 140 135
M  V30 149 1 136 141
M  V30 150 1 137 142
M  V30 151 1 138 143
M  V30 152 1 140 144
M  V30 153 2 145 146
M  V30 154 1 146 147
M  V30 155 2 147 148
M  V30 156 1 148 149
M  V30 157 2 149 150
M  V30 158 1 150 145
M  V30 159 1 146 151
M  V30 160 1 147 152
M  V30 161 1 149 153
M  V30 162 1 150 154
M  V30 163 1 117 135
M  V30 164 1 139 145
M  V30 165 9 34 1
M  V30 166 9 72 1
M  V30 167 9 88 1
M  V30 168 9 126 1
M  V30 169 9 12 2
M  V30 170 9 50 2
M  V30 171 9 110 2
M  V30 172 9 148 2
M  V30 END BOND
M  V30 END CTAB
M  END

$$$$
