
     RDKit          3D

  0  0  0  0  0  0  0  0  0  0999 V3000
M  V30 BEGIN CTAB
M  V30 COUNTS 154 172 0 0 0
M  V30 BEGIN ATOM
M  V30 1 Pd -0.3344 4.1087 0.9861 0 CHG=2
M  V30 2 Pd -0.7972 -4.8070 -1.6526 0 CHG=2
M  V30 3 C 4.8261 -3.4370 0.3185 0
M  V30 4 C 4.5926 -4.5354 -0.1319 0
M  V30 5 C 4.4475 -5.7926 -0.7494 0
M  V30 6 C 5.5405 -6.6362 -0.8364 0
M  V30 7 C 5.4695 -7.8395 -1.5461 0
M  V30 8 C 4.3220 -8.2027 -2.2061 0
M  V30 9 C 3.1818 -7.3818 -2.1359 0
M  V30 10 C 1.9794 -7.6824 -2.8149 0
M  V30 11 C 0.8998 -6.8593 -2.6810 0
M  V30 12 N 0.9218 -5.7715 -1.8721 0
M  V30 13 C 2.0358 -5.4379 -1.2502 0
M  V30 14 C 3.2205 -6.1817 -1.3676 0
M  V30 15 H 6.4674 -6.3528 -0.3618 0
M  V30 16 H 6.3416 -8.4739 -1.5898 0
M  V30 17 H 4.2818 -9.1131 -2.7833 0
M  V30 18 H 1.9296 -8.5611 -3.4378 0
M  V30 19 H -0.0287 -7.0410 -3.2184 0
M  V30 20 H 2.0088 -4.5556 -0.6153 0
M  V30 21 C 5.1176 -2.1256 0.7517 0
M  V30 22 C 6.4118 -1.7986 1.1694 0
M  V30 23 C 6.7096 -0.4935 1.5156 0
M  V30 24 C 5.7416 0.4942 1.4480 0
M  V30 25 C 4.4429 0.1820 1.0380 0
M  V30 26 C 4.1382 -1.1358 0.7014 0
M  V30 27 H 7.1719 -2.5635 1.2114 0
M  V30 28 H 7.7103 -0.2405 1.8316 0
M  V30 29 H 6.0104 1.5123 1.6816 0
M  V30 30 H 3.1350 -1.4123 0.4198 0
M  V30 31 C 3.4088 1.2167 0.9434 0
M  V30 32 C 3.3649 2.3087 1.8162 0
M  V30 33 C 2.3352 3.2219 1.7169 0
M  V30 34 N 1.3566 3.0919 0.8164 0
M  V30 35 C 1.3989 2.0771 -0.0559 0
M  V30 36 C 2.4051 1.1381 -0.0316 0
M  V30 37 H 4.1116 2.4300 2.5840 0
M  V30 38 H 2.2729 4.0834 2.3754 0
M  V30 39 H 0.5889 2.0421 -0.7829 0
M  V30 40 H 2.4299 0.3526 -0.7695 0
M  V30 41 C -1.2023 -4.3637 4.4144 0
M  V30 42 C -1.3046 -5.4460 3.8836 0
M  V30 43 C -1.5575 -6.7224 3.3453 0
M  V30 44 C -1.8337 -7.7771 4.1969 0
M  V30 45 C -2.2085 -9.0291 3.6978 0
M  V30 46 C -2.3461 -9.2385 2.3482 0
M  V30 47 C -2.0646 -8.1983 1.4437 0
M  V30 48 C -2.2142 -8.3381 0.0455 0
M  V30 49 C -1.8959 -7.2986 -0.7789 0
M  V30 50 N -1.3897 -6.1342 -0.3039 0
M  V30 51 C -1.2685 -5.9530 0.9968 0
M  V30 52 C -1.6243 -6.9347 1.9347 0
M  V30 53 H -1.7743 -7.6260 5.2638 0
M  V30 54 H -2.4134 -9.8295 4.3922 0
M  V30 55 H -2.6714 -10.1942 1.9683 0
M  V30 56 H -2.5842 -9.2677 -0.3564 0
M  V30 57 H -2.0344 -7.3592 -1.8562 0
M  V30 58 H -0.8607 -5.0025 1.3333 0
M  V30 59 C -1.1826 -3.0896 5.0218 0
M  V30 60 C -1.3382 -2.9738 6.4069 0
M  V30 61 C -1.4009 -1.7196 6.9858 0
M  V30 62 C -1.3170 -0.5773 6.2079 0
M  V30 63 C -1.1549 -0.6767 4.8236 0
M  V30 64 C -1.0779 -1.9405 4.2408 0
M  V30 65 H -1.4172 -3.8621 7.0147 0
M  V30 66 H -1.5278 -1.6308 8.0540 0
M  V30 67 H -1.4130 0.3885 6.6783 0
M  V30 68 H -0.9121 -2.0467 3.1807 0
M  V30 69 C -1.0831 0.5216 3.9822 0
M  V30 70 C -0.5061 1.7139 4.4314 0
M  V30 71 C -0.4206 2.7955 3.5787 0
M  V30 72 N -0.8598 2.7410 2.3180 0
M  V30 73 C -1.4492 1.6226 1.8767 0
M  V30 74 C -1.5885 0.5100 2.6750 0
M  V30 75 H -0.1030 1.7892 5.4280 0
M  V30 76 H 0.0166 3.7375 3.8965 0
M  V30 77 H -1.8096 1.6498 0.8493 0
M  V30 78 H -2.0987 -0.3627 2.3010 0
M  V30 79 C -5.9560 2.7393 -0.9897 0
M  V30 80 C -5.7237 3.8354 -0.5333 0
M  V30 81 C -5.5808 5.0895 0.0912 0
M  V30 82 C -6.6758 5.9300 0.1838 0
M  V30 83 C -6.6072 7.1295 0.9002 0
M  V30 84 C -5.4599 7.4918 1.5609 0
M  V30 85 C -4.3177 6.6743 1.4850 0
M  V30 86 C -3.1153 6.9743 2.1642 0
M  V30 87 C -2.0337 6.1546 2.0248 0
M  V30 88 N -2.0539 5.0710 1.2102 0
M  V30 89 C -3.1678 4.7379 0.5876 0
M  V30 90 C -4.3542 5.4783 0.7101 0
M  V30 91 H -7.6025 5.6468 -0.2913 0
M  V30 92 H -7.4808 7.7614 0.9484 0
M  V30 93 H -5.4214 8.3991 2.1432 0
M  V30 94 H -3.0669 7.8499 2.7916 0
M  V30 95 H -1.1052 6.3359 2.5622 0
M  V30 96 H -3.1391 3.8591 -0.0521 0
M  V30 97 C -6.2459 1.4300 -1.4300 0
M  V30 98 C -7.5373 1.1059 -1.8583 0
M  V30 99 C -7.8340 -0.1977 -2.2114 0
M  V30 100 C -6.8674 -1.1867 -2.1403 0
M  V30 101 C -5.5716 -0.8774 -1.7198 0
M  V30 102 C -5.2680 0.4389 -1.3762 0
M  V30 103 H -8.2964 1.8716 -1.9029 0
M  V30 104 H -8.8326 -0.4485 -2.5355 0
M  V30 105 H -7.1356 -2.2036 -2.3796 0
M  V30 106 H -4.2665 0.7132 -1.0861 0
M  V30 107 C -4.5390 -1.9132 -1.6217 0
M  V30 108 C -4.4898 -3.0019 -2.4983 0
M  V30 109 C -3.4612 -3.9160 -2.3955 0
M  V30 110 N -2.4885 -3.7901 -1.4881 0
M  V30 111 C -2.5365 -2.7786 -0.6121 0
M  V30 112 C -3.5420 -1.8390 -0.6394 0
M  V30 113 H -5.2313 -3.1198 -3.2716 0
M  V30 114 H -3.3950 -4.7750 -3.0570 0
M  V30 115 H -1.7314 -2.7470 0.1206 0
M  V30 116 H -3.5715 -1.0568 0.1016 0
M  V30 117 C 0.0967 3.6637 -5.0811 0
M  V30 118 C 0.1946 4.7464 -4.5500 0
M  V30 119 C 0.4427 6.0234 -4.0111 0
M  V30 120 C 0.7223 7.0780 -4.8618 0
M  V30 121 C 1.0924 8.3308 -4.3615 0
M  V30 122 C 1.2220 8.5413 -3.0114 0
M  V30 123 C 0.9370 7.5014 -2.1078 0
M  V30 124 C 1.0788 7.6421 -0.7089 0
M  V30 125 C 0.7580 6.6027 0.1145 0
M  V30 126 N 0.2561 5.4372 -0.3624 0
M  V30 127 C 0.1419 5.2549 -1.6636 0
M  V30 128 C 0.5013 6.2367 -2.6003 0
M  V30 129 H 0.6691 6.9261 -5.9290 0
M  V30 130 H 1.3001 9.1311 -5.0554 0
M  V30 131 H 1.5436 9.4978 -2.6303 0
M  V30 132 H 1.4452 8.5726 -0.3056 0
M  V30 133 H 0.8908 6.6643 1.1924 0
M  V30 134 H -0.2624 4.3037 -2.0018 0
M  V30 135 C 0.0819 2.3892 -5.6876 0
M  V30 136 C 0.2505 2.2722 -7.0711 0
M  V30 137 C 0.3174 1.0176 -7.6484 0
M  V30 138 C 0.2252 -0.1242 -6.8706 0
M  V30 139 C 0.0504 -0.0235 -5.4880 0
M  V30 140 C -0.0311 1.2407 -4.9068 0
M  V30 141 H 0.3359 3.1601 -7.6787 0
M  V30 142 H 0.4542 0.9279 -8.7154 0
M  V30 143 H 0.3248 -1.0903 -7.3393 0
M  V30 144 H -0.2068 1.3479 -3.8485 0
M  V30 145 C -0.0295 -1.2211 -4.6463 0
M  V30 146 C -0.6032 -2.4136 -5.0993 0
M  V30 147 C -0.6956 -3.4946 -4.2466 0
M  V30 148 N -0.2666 -3.4393 -2.9825 0
M  V30 149 C 0.3190 -2.3207 -2.5370 0
M  V30 150 C 0.4648 -1.2086 -3.3348 0
M  V30 151 H -0.9981 -2.4894 -6.0993 0
M  V30 152 H -1.1305 -4.4368 -4.5672 0
M  V30 153 H 0.6707 -2.3470 -1.5065 0
M  V30 154 H 0.9715 -0.3354 -2.9573 0
M  V30 END ATOM
M  V30 BEGIN BOND
M  V30 1 3 3 4
M  V30 2 1 4 5
M  V30 3 2 5 6
M  V30 4 1 6 7
M  V30 5 2 7 8
M  V30 6 1 8 9
M  V30 7 2 9 10
M  V30 8 1 10 11
M  V30 9 2 11 12
M  V30 10 1 12 13
M  V30 11 2 13 14
M  V30 12 1 14 5
M  V30 13 1 14 9
M  V30 14 1 6 15
M  V30 15 1 7 16
M  V30 16 1 8 17
M  V30 17 1 10 18
M  V30 18 1 11 19
M  V30 19 1 13 20
M  V30 20 2 21 22
M  V30 21 1 22 23
M  V30 22 2 23 24
M  V30 23 1 24 25
M  V30 24 2 25 26
M  V30 25 1 26 21
M  V30 26 1 22 27
M  V30 27 1 23 28
M  V30 28 1 24 29
M  V30 29 1 26 30
M  V30 30 2 31 32
M  V30 31 1 32 33
M  V30 32 2 33 34
M  V30 33 1 34 35
M  V30 34 2 35 36
M  V30 35 1 36 31
M  V30 36 1 32 37
M  V30 37 1 33 38
M  V30 38 1 35 39
M  V30 39 1 36 40
M  V30 40 1 3 21
M  V30 41 1 25 31
M  V30 42 3 41 42
M  V30 43 1 42 43
M  V30 44 2 43 44
M  V30 45 1 44 45
M  V30 46 2 45 46
M  V30 47 1 46 47
M  V30 48 2 47 48
M  V30 49 1 48 49
M  V30 50 2 49 50
M  V30 51 1 50 51
M  V30 52 2 51 52
M  V30 53 1 52 43
M  V30 54 1 52 47
M  V30 55 1 44 53
M  V30 56 1 45 54
M  V30 57 1 46 55
M  V30 58 1 48 56
M  V30 59 1 49 57
M  V30 60 1 51 58
M  V30 61 2 59 60
M  V30 62 1 60 61
M  V30 63 2 61 62
M  V30 64 1 62 63
M  V30 65 2 63 64
M  V30 66 1 64 59
M  V30 67 1 60 65
M  V30 68 1 61 66
M  V30 69 1 62 67
M  V30 70 1 64 68
M  V30 71 2 69 70
M  V30 72 1 70 71
M  V30 73 2 71 72
M  V30 74 1 72 73
M  V30 75 2 73 74
M  V30 76 1 74 69
M  V30 77 1 70 75
M  V30 78 1 71 76
M  V30 79 1 73 77
M  V30 80 1 74 78
M  V30 81 1 41 59
M  V30 82 1 63 69
M  V30 83 3 79 80
M  V30 84 1 80 81
M  V30 85 2 81 82
M  V30 86 1 82 83
M  V30 87 2 83 84
M  V30 88 1 84 85
M  V30 89 2 85 86
M  V30 90 1 86 87
M  V30 91 2 87 88
M  V30 92 1 88 89
M  V30 93 2 89 90
M  V30 94 1 90 81
M  V30 95 1 90 85
M  V30 96 1 82 91
M  V30 97 1 83 92
M  V30 98 1 84 93
M  V30 99 1 86 94
M  V30 100 1 87 95
M  V30 101 1 89 96
M  V30 102 2 97 98
M  V30 103 1 98 99
M  V30 104 2 99 100
M  V30 105 1 100 101
M  V30 106 2 101 102
M  V30 107 1 102 97
M  V30 108 1 98 103
M  V30 109 1 99 104
M  V30 110 1 100 105
M  V30 111 1 102 106
M  V30 112 2 107 108
M  V30 113 1 108 109
M  V30 114 2 109 110
M  V30 115 1 110 111
M  V30 116 2 111 112
M  V30 117 1 112 107
M  V30 118 1 108 113
M  V30 119 1 109 114
M  V30 120 1 111 115
M  V30 121 1 112 116
M  V30 122 1 79 97
M  V30 123 1 101 107
M  V30 124 3 117 118
M  V30 125 1 118 119
M  V30 126 2 119 120
M  V30 127 1 120 121
M  V30 128 2 121 122
M  V30 129 1 122 123
M  V30 130 2 123 124
M  V30 131 1 124 125
M  V30 132 2 125 126
M  V30 133 1 126 127
M  V30 134 2 127 128
M  V30 135 1 128 119
M  V30 136 1 128 123
M  V30 137 1 120 129
M  V30 138 1 121 130
M  V30 139 1 122 131
M  V30 140 1 124 132
M  V30 141 1 125 133
M  V30 142 1 127 134
M  V30 143 2 135 136
M  V30 144 1 136 137
M  V30 145 2 137 138
M  V30 146 1 138 139
M  V30 147 2 139 140
M  V30 148 1 140 135
M  V30 149 1 136 141
M  V30 150 1 137 142
M  V30 151 1 138 143
M  V30 152 1 140 144
M  V30 153 2 145 146
M  V30 154 1 146 147
M  V30 155 2 147 148
M  V30 156 1 148 149
M  V30 157 2 149 150
M  V30 158 1 150 145
M  V30 159 1 146 151
M  V30 160 1 147 152
M  V30 161 1 149 153
M  V30 162 1 150 154
M  V30 163 1 117 135
M  V30 164 1 139 145
M  V30 165 9 34 1
M  V30 166 9 72 1
M  V30 167 9 88 1
M  V30 168 9 126 1
M  V30 169 9 12 2
M  V30 170 9 50 2
M  V30 171 9 110 2
M  V30 172 9 148 2
M  V30 END BOND
M  V30 END CTAB
M  END

$$$$
