
     RDKit          3D

  0  0  0  0  0  0  0  0  0  0999 V3000
M  V30 BEGIN CTAB
M  V30 COUNTS 154 172 0 0 0
M  V30 BEGIN ATOM
M  V30 1 Pd 0.3810 4.5830 -1.3529 0 CHG=2
M  V30 2 Pd -0.7146 -4.3532 1.0160 0 CHG=2
M  V30 3 C 5.1765 -2.7495 1.3401 0
M  V30 4 C 4.8482 -3.8956 1.5458 0
M  V30 5 C 4.5778 -5.2711 1.6801 0
M  V30 6 C 5.6221 -6.1487 1.9108 0
M  V30 7 C 5.4123 -7.5316 1.9305 0
M  V30 8 C 4.1690 -8.0601 1.6877 0
M  V30 9 C 3.0750 -7.2057 1.4599 0
M  V30 10 C 1.7762 -7.6846 1.1753 0
M  V30 11 C 0.7518 -6.8024 0.9935 0
M  V30 12 N 0.9248 -5.4639 1.1230 0
M  V30 13 C 2.1285 -4.9765 1.3524 0
M  V30 14 C 3.2615 -5.7929 1.4954 0
M  V30 15 H 6.6173 -5.7597 2.0622 0
M  V30 16 H 6.2505 -8.1857 2.1166 0
M  V30 17 H 4.0177 -9.1280 1.6667 0
M  V30 18 H 1.6093 -8.7472 1.1003 0
M  V30 19 H -0.2518 -7.1354 0.7367 0
M  V30 20 H 2.2215 -3.8971 1.4446 0
M  V30 21 C 5.5653 -1.4348 1.0041 0
M  V30 22 C 6.9160 -1.0737 1.0421 0
M  V30 23 C 7.2977 0.1913 0.6345 0
M  V30 24 C 6.3575 1.1025 0.1840 0
M  V30 25 C 5.0039 0.7584 0.1455 0
M  V30 26 C 4.6165 -0.5119 0.5686 0
M  V30 27 H 7.6529 -1.7856 1.3809 0
M  V30 28 H 8.3411 0.4671 0.6579 0
M  V30 29 H 6.6858 2.0672 -0.1692 0
M  V30 30 H 3.5752 -0.7904 0.5868 0
M  V30 31 C 3.9956 1.7030 -0.3443 0
M  V30 32 C 4.1134 3.0838 -0.1549 0
M  V30 33 C 3.1054 3.9212 -0.5871 0
M  V30 34 N 1.9989 3.4552 -1.1736 0
M  V30 35 C 1.8818 2.1411 -1.4018 0
M  V30 36 C 2.8545 1.2461 -1.0176 0
M  V30 37 H 4.9704 3.4989 0.3499 0
M  V30 38 H 3.1665 4.9981 -0.4600 0
M  V30 39 H 0.9706 1.8269 -1.9088 0
M  V30 40 H 2.7465 0.1983 -1.2468 0
M  V30 41 C -0.1871 -0.8835 6.0012 0
M  V30 42 C -0.3975 -2.0694 6.1149 0
M  V30 43 C -0.7630 -3.4107 6.3391 0
M  V30 44 C -0.9358 -3.8609 7.6357 0
M  V30 45 C -1.4152 -5.1493 7.8950 0
M  V30 46 C -1.7606 -5.9934 6.8692 0
M  V30 47 C -1.5910 -5.5829 5.5343 0
M  V30 48 C -1.9536 -6.3905 4.4328 0
M  V30 49 C -1.7356 -5.9439 3.1622 0
M  V30 50 N -1.1323 -4.7560 2.9120 0
M  V30 51 C -0.8113 -3.9589 3.9125 0
M  V30 52 C -1.0477 -4.2951 5.2546 0
M  V30 53 H -0.7120 -3.2011 8.4599 0
M  V30 54 H -1.5344 -5.4673 8.9195 0
M  V30 55 H -2.1650 -6.9726 7.0725 0
M  V30 56 H -2.4049 -7.3536 4.6093 0
M  V30 57 H -2.0367 -6.5233 2.2921 0
M  V30 58 H -0.3319 -3.0144 3.6654 0
M  V30 59 C -0.0416 0.5139 5.8642 0
M  V30 60 C 0.0167 1.3249 7.0021 0
M  V30 61 C 0.0760 2.6991 6.8605 0
M  V30 62 C 0.0722 3.2809 5.6040 0
M  V30 63 C 0.0207 2.4837 4.4577 0
M  V30 64 C -0.0252 1.0978 4.5991 0
M  V30 65 H 0.0066 0.8753 7.9831 0
M  V30 66 H 0.1142 3.3248 7.7392 0
M  V30 67 H 0.0743 4.3562 5.5216 0
M  V30 68 H -0.0242 0.4574 3.7318 0
M  V30 69 C -0.0031 3.0828 3.1199 0
M  V30 70 C 0.6670 4.2747 2.8253 0
M  V30 71 C 0.6518 4.7665 1.5361 0
M  V30 72 N 0.0260 4.1302 0.5418 0
M  V30 73 C -0.6531 3.0071 0.8066 0
M  V30 74 C -0.7002 2.4667 2.0717 0
M  V30 75 H 1.2178 4.7997 3.5884 0
M  V30 76 H 1.1572 5.6914 1.2739 0
M  V30 77 H -1.1636 2.5503 -0.0400 0
M  V30 78 H -1.2843 1.5804 2.2591 0
M  V30 79 C -5.5093 2.9772 -1.6815 0
M  V30 80 C -5.1814 4.1245 -1.8807 0
M  V30 81 C -4.9121 5.5010 -2.0074 0
M  V30 82 C -5.9576 6.3790 -2.2314 0
M  V30 83 C -5.7493 7.7622 -2.2431 0
M  V30 84 C -4.5061 8.2905 -1.9993 0
M  V30 85 C -3.4109 7.4359 -1.7783 0
M  V30 86 C -2.1121 7.9143 -1.4932 0
M  V30 87 C -1.0864 7.0320 -1.3181 0
M  V30 88 N -1.2585 5.6942 -1.4548 0
M  V30 89 C -2.4621 5.2069 -1.6851 0
M  V30 90 C -3.5961 6.0230 -1.8218 0
M  V30 91 H -6.9527 5.9899 -2.3833 0
M  V30 92 H -6.5883 8.4166 -2.4239 0
M  V30 93 H -4.3557 9.3583 -1.9723 0
M  V30 94 H -1.9460 8.9767 -1.4127 0
M  V30 95 H -0.0829 7.3647 -1.0612 0
M  V30 96 H -2.5541 4.1279 -1.7834 0
M  V30 97 C -5.8975 1.6606 -1.3528 0
M  V30 98 C -7.2470 1.2964 -1.4016 0
M  V30 99 C -7.6286 0.0292 -1.0008 0
M  V30 100 C -6.6893 -0.8813 -0.5465 0
M  V30 101 C -5.3370 -0.5341 -0.4972 0
M  V30 102 C -4.9497 0.7385 -0.9135 0
M  V30 103 H -7.9832 2.0076 -1.7433 0
M  V30 104 H -8.6711 -0.2491 -1.0325 0
M  V30 105 H -7.0178 -1.8479 -0.1988 0
M  V30 106 H -3.9089 1.0196 -0.9232 0
M  V30 107 C -4.3297 -1.4778 -0.0037 0
M  V30 108 C -4.4427 -2.8581 -0.1987 0
M  V30 109 C -3.4354 -3.6945 0.2371 0
M  V30 110 N -2.3337 -3.2278 0.8321 0
M  V30 111 C -2.2217 -1.9143 1.0660 0
M  V30 112 C -3.1942 -1.0203 0.6788 0
M  V30 113 H -5.2954 -3.2737 -0.7105 0
M  V30 114 H -3.4929 -4.7712 0.1057 0
M  V30 115 H -1.3147 -1.5995 1.5801 0
M  V30 116 H -3.0904 0.0267 0.9128 0
M  V30 117 C -0.1210 1.1091 -6.3404 0
M  V30 118 C 0.0850 2.2960 -6.4536 0
M  V30 119 C 0.4460 3.6386 -6.6770 0
M  V30 120 C 0.6222 4.0888 -7.9732 0
M  V30 121 C 1.0971 5.3790 -8.2314 0
M  V30 122 C 1.4347 6.2251 -7.2047 0
M  V30 123 C 1.2615 5.8146 -5.8703 0
M  V30 124 C 1.6167 6.6242 -4.7679 0
M  V30 125 C 1.3959 6.1774 -3.4978 0
M  V30 126 N 0.7966 4.9871 -3.2492 0
M  V30 127 C 0.4825 4.1882 -4.2505 0
M  V30 128 C 0.7226 4.5247 -5.5919 0
M  V30 129 H 0.4044 3.4274 -8.7979 0
M  V30 130 H 1.2192 5.6968 -9.2556 0
M  V30 131 H 1.8358 7.2058 -7.4070 0
M  V30 132 H 2.0647 7.5892 -4.9431 0
M  V30 133 H 1.6916 6.7585 -2.6271 0
M  V30 134 H 0.0063 3.2419 -4.0048 0
M  V30 135 C -0.2614 -0.2887 -6.2030 0
M  V30 136 C -0.3069 -1.1012 -7.3405 0
M  V30 137 C -0.3617 -2.4754 -7.1979 0
M  V30 138 C -0.3661 -3.0559 -5.9407 0
M  V30 139 C -0.3274 -2.2572 -4.7949 0
M  V30 140 C -0.2861 -0.8714 -4.9376 0
M  V30 141 H -0.2903 -0.6526 -8.3219 0
M  V30 142 H -0.3900 -3.1022 -8.0762 0
M  V30 143 H -0.3645 -4.1310 -5.8571 0
M  V30 144 H -0.2971 -0.2299 -4.0710 0
M  V30 145 C -0.3115 -2.8548 -3.4564 0
M  V30 146 C -0.9789 -4.0490 -3.1653 0
M  V30 147 C -0.9706 -4.5397 -1.8756 0
M  V30 148 N -0.3543 -3.9000 -0.8775 0
M  V30 149 C 0.3218 -2.7742 -1.1386 0
M  V30 150 C 0.3753 -2.2346 -2.4037 0
M  V30 151 H -1.5221 -4.5770 -3.9319 0
M  V30 152 H -1.4741 -5.4664 -1.6159 0
M  V30 153 H 0.8241 -2.3141 -0.2887 0
M  V30 154 H 0.9564 -1.3458 -2.5879 0
M  V30 END ATOM
M  V30 BEGIN BOND
M  V30 1 3 3 4
M  V30 2 1 4 5
M  V30 3 2 5 6
M  V30 4 1 6 7
M  V30 5 2 7 8
M  V30 6 1 8 9
M  V30 7 2 9 10
M  V30 8 1 10 11
M  V30 9 2 11 12
M  V30 10 1 12 13
M  V30 11 2 13 14
M  V30 12 1 14 5
M  V30 13 1 14 9
M  V30 14 1 6 15
M  V30 15 1 7 16
M  V30 16 1 8 17
M  V30 17 1 10 18
M  V30 18 1 11 19
M  V30 19 1 13 20
M  V30 20 2 21 22
M  V30 21 1 22 23
M  V30 22 2 23 24
M  V30 23 1 24 25
M  V30 24 2 25 26
M  V30 25 1 26 21
M  V30 26 1 22 27
M  V30 27 1 23 28
M  V30 28 1 24 29
M  V30 29 1 26 30
M  V30 30 2 31 32
M  V30 31 1 32 33
M  V30 32 2 33 34
M  V30 33 1 34 35
M  V30 34 2 35 36
M  V30 35 1 36 31
M  V30 36 1 32 37
M  V30 37 1 33 38
M  V30 38 1 35 39
M  V30 39 1 36 40
M  V30 40 1 3 21
M  V30 41 1 25 31
M  V30 42 3 41 42
M  V30 43 1 42 43
M  V30 44 2 43 44
M  V30 45 1 44 45
M  V30 46 2 45 46
M  V30 47 1 46 47
M  V30 48 2 47 48
M  V30 49 1 48 49
M  V30 50 2 49 50
M  V30 51 1 50 51
M  V30 52 2 51 52
M  V30 53 1 52 43
M  V30 54 1 52 47
M  V30 55 1 44 53
M  V30 56 1 45 54
M  V30 57 1 46 55
M  V30 58 1 48 56
M  V30 59 1 49 57
M  V30 60 1 51 58
M  V30 61 2 59 60
M  V30 62 1 60 61
M  V30 63 2 61 62
M  V30 64 1 62 63
M  V30 65 2 63 64
M  V30 66 1 64 59
M  V30 67 1 60 65
M  V30 68 1 61 66
M  V30 69 1 62 67
M  V30 70 1 64 68
M  V30 71 2 69 70
M  V30 72 1 70 71
M  V30 73 2 71 72
M  V30 74 1 72 73
M  V30 75 2 73 74
M  V30 76 1 74 69
M  V30 77 1 70 75
M  V30 78 1 71 76
M  V30 79 1 73 77
M  V30 80 1 74 78
M  V30 81 1 41 59
M  V30 82 1 63 69
M  V30 83 3 79 80
M  V30 84 1 80 81
M  V30 85 2 81 82
M  V30 86 1 82 83
M  V30 87 2 83 84
M  V30 88 1 84 85
M  V30 89 2 85 86
M  V30 90 1 86 87
M  V30 91 2 87 88
M  V30 92 1 88 89
M  V30 93 2 89 90
M  V30 94 1 90 81
M  V30 95 1 90 85
M  V30 96 1 82 91
M  V30 97 1 83 92
M  V30 98 1 84 93
M  V30 99 1 86 94
M  V30 100 1 87 95
M  V30 101 1 89 96
M  V30 102 2 97 98
M  V30 103 1 98 99
M  V30 104 2 99 100
M  V30 105 1 100 101
M  V30 106 2 101 102
M  V30 107 1 102 97
M  V30 108 1 98 103
M  V30 109 1 99 104
M  V30 110 1 100 105
M  V30 111 1 102 106
M  V30 112 2 107 108
M  V30 113 1 108 109
M  V30 114 2 109 110
M  V30 115 1 110 111
M  V30 116 2 111 112
M  V30 117 1 112 107
M  V30 118 1 108 113
M  V30 119 1 109 114
M  V30 120 1 111 115
M  V30 121 1 112 116
M  V30 122 1 79 97
M  V30 123 1 101 107
M  V30 124 3 117 118
M  V30 125 1 118 119
M  V30 126 2 119 120
M  V30 127 1 120 121
M  V30 128 2 121 122
M  V30 129 1 122 123
M  V30 130 2 123 124
M  V30 131 1 124 125
M  V30 132 2 125 126
M  V30 133 1 126 127
M  V30 134 2 127 128
M  V30 135 1 128 119
M  V30 136 1 128 123
M  V30 137 1 120 129
M  V30 138 1 121 130
M  V30 139 1 122 131
M  V30 140 1 124 132
M  V30 141 1 125 133
M  V30 142 1 127 134
M  V30 143 2 135 136
M  V30 144 1 136 137
M  V30 145 2 137 138
M  V30 146 1 138 139
M  V30 147 2 139 140
M  V30 148 1 140 135
M  V30 149 1 136 141
M  V30 150 1 137 142
M  V30 151 1 138 143
M  V30 152 1 140 144
M  V30 153 2 145 146
M  V30 154 1 146 147
M  V30 155 2 147 148
M  V30 156 1 148 149
M  V30 157 2 149 150
M  V30 158 1 150 145
M  V30 159 1 146 151
M  V30 160 1 147 152
M  V30 161 1 149 153
M  V30 162 1 150 154
M  V30 163 1 117 135
M  V30 164 1 139 145
M  V30 165 9 34 1
M  V30 166 9 72 1
M  V30 167 9 88 1
M  V30 168 9 126 1
M  V30 169 9 12 2
M  V30 170 9 50 2
M  V30 171 9 110 2
M  V30 172 9 148 2
M  V30 END BOND
M  V30 END CTAB
M  END

$$$$
