
     RDKit          3D

  0  0  0  0  0  0  0  0  0  0999 V3000
M  V30 BEGIN CTAB
M  V30 COUNTS 154 172 0 0 0
M  V30 BEGIN ATOM
M  V30 1 Pd -0.4470 -2.3042 4.0201 0 CHG=2
M  V30 2 Pd 0.4387 2.3029 -4.0209 0 CHG=2
M  V30 3 C 5.9292 0.8197 -1.7765 0
M  V30 4 C 5.8457 1.4845 -2.7838 0
M  V30 5 C 5.8491 2.3598 -3.8870 0
M  V30 6 C 7.0562 2.7888 -4.4092 0
M  V30 7 C 7.1031 3.7497 -5.4247 0
M  V30 8 C 5.9528 4.3203 -5.9098 0
M  V30 9 C 4.7018 3.9066 -5.4170 0
M  V30 10 C 3.4825 4.4734 -5.8519 0
M  V30 11 C 2.3010 4.0059 -5.3555 0
M  V30 12 N 2.2484 2.9707 -4.4815 0
M  V30 13 C 3.3656 2.4393 -4.0248 0
M  V30 14 C 4.6351 2.8859 -4.4241 0
M  V30 15 H 7.9768 2.3866 -4.0149 0
M  V30 16 H 8.0631 4.0581 -5.8099 0
M  V30 17 H 5.9940 5.0878 -6.6667 0
M  V30 18 H 3.4997 5.2760 -6.5718 0
M  V30 19 H 1.3468 4.4441 -5.6407 0
M  V30 20 H 3.2760 1.6142 -3.3223 0
M  V30 21 C 6.0221 0.1280 -0.5495 0
M  V30 22 C 7.2768 -0.1816 -0.0146 0
M  V30 23 C 7.3612 -0.7871 1.2256 0
M  V30 24 C 6.2169 -1.0853 1.9460 0
M  V30 25 C 4.9563 -0.7873 1.4224 0
M  V30 26 C 4.8696 -0.1889 0.1666 0
M  V30 27 H 8.1711 0.0608 -0.5678 0
M  V30 28 H 8.3301 -1.0198 1.6408 0
M  V30 29 H 6.3112 -1.5179 2.9295 0
M  V30 30 H 3.9093 0.0160 -0.2786 0
M  V30 31 C 3.7340 -1.0796 2.1770 0
M  V30 32 C 3.6288 -2.1859 3.0263 0
M  V30 33 C 2.4345 -2.4439 3.6675 0
M  V30 34 N 1.3555 -1.6754 3.4931 0
M  V30 35 C 1.4436 -0.5883 2.7166 0
M  V30 36 C 2.6068 -0.2549 2.0604 0
M  V30 37 H 4.4623 -2.8552 3.1640 0
M  V30 38 H 2.3195 -3.2914 4.3370 0
M  V30 39 H 0.5390 0.0130 2.6375 0
M  V30 40 H 2.6559 0.6459 1.4703 0
M  V30 41 C 1.0636 -3.6934 -4.9284 0
M  V30 42 C 1.0884 -2.9377 -5.8729 0
M  V30 43 C 1.0064 -2.1483 -7.0360 0
M  V30 44 C 1.1100 -2.7520 -8.2764 0
M  V30 45 C 0.9129 -2.0222 -9.4535 0
M  V30 46 C 0.5773 -0.6920 -9.4113 0
M  V30 47 C 0.4721 -0.0331 -8.1727 0
M  V30 48 C 0.1020 1.3259 -8.0573 0
M  V30 49 C 0.0469 1.9127 -6.8268 0
M  V30 50 N 0.3839 1.2443 -5.6966 0
M  V30 51 C 0.7005 -0.0344 -5.7596 0
M  V30 52 C 0.7284 -0.7492 -6.9672 0
M  V30 53 H 1.3307 -3.8068 -8.3354 0
M  V30 54 H 1.0048 -2.5262 -10.4035 0
M  V30 55 H 0.3894 -0.1410 -10.3194 0
M  V30 56 H -0.1383 1.8858 -8.9468 0
M  V30 57 H -0.2702 2.9454 -6.6987 0
M  V30 58 H 0.9610 -0.5315 -4.8279 0
M  V30 59 C 0.9343 -4.5795 -3.8372 0
M  V30 60 C 1.0132 -5.9602 -4.0456 0
M  V30 61 C 0.8035 -6.8249 -2.9872 0
M  V30 62 C 0.5105 -6.3382 -1.7245 0
M  V30 63 C 0.4346 -4.9614 -1.4991 0
M  V30 64 C 0.6593 -4.0887 -2.5625 0
M  V30 65 H 1.2284 -6.3432 -5.0313 0
M  V30 66 H 0.8579 -7.8906 -3.1500 0
M  V30 67 H 0.3076 -7.0342 -0.9259 0
M  V30 68 H 0.6474 -3.0216 -2.4085 0
M  V30 69 C 0.1070 -4.4286 -0.1733 0
M  V30 70 C 0.5017 -5.0695 1.0056 0
M  V30 71 C 0.2089 -4.4962 2.2261 0
M  V30 72 N -0.4321 -3.3281 2.3254 0
M  V30 73 C -0.8523 -2.7140 1.2122 0
M  V30 74 C -0.6149 -3.2347 -0.0397 0
M  V30 75 H 1.0557 -5.9933 0.9711 0
M  V30 76 H 0.4960 -4.9694 3.1606 0
M  V30 77 H -1.3916 -1.7795 1.3604 0
M  V30 78 H -0.9965 -2.7336 -0.9144 0
M  V30 79 C -5.9369 -0.8163 1.7776 0
M  V30 80 C -5.8530 -1.4866 2.7812 0
M  V30 81 C -5.8566 -2.3680 3.8795 0
M  V30 82 C -7.0640 -2.8021 4.3971 0
M  V30 83 C -7.1112 -3.7688 5.4071 0
M  V30 84 C -5.9608 -4.3399 5.8912 0
M  V30 85 C -4.7096 -3.9212 5.4032 0
M  V30 86 C -3.4901 -4.4880 5.8375 0
M  V30 87 C -2.3084 -4.0158 5.3459 0
M  V30 88 N -2.2560 -2.9760 4.4774 0
M  V30 89 C -3.3733 -2.4440 4.0214 0
M  V30 90 C -4.6428 -2.8949 4.4161 0
M  V30 91 H -7.9845 -2.3993 4.0032 0
M  V30 92 H -8.0713 -4.0811 5.7885 0
M  V30 93 H -6.0020 -5.1117 6.6437 0
M  V30 94 H -3.5072 -5.2944 6.5531 0
M  V30 95 H -1.3541 -4.4538 5.6308 0
M  V30 96 H -3.2837 -1.6149 3.3237 0
M  V30 97 C -6.0300 -0.1182 0.5544 0
M  V30 98 C -7.2845 0.2013 0.0250 0
M  V30 99 C -7.3694 0.8133 -1.2121 0
M  V30 100 C -6.2256 1.1083 -1.9347 0
M  V30 101 C -4.9652 0.8004 -1.4167 0
M  V30 102 C -4.8780 0.1956 -0.1640 0
M  V30 103 H -8.1785 -0.0386 0.5798 0
M  V30 104 H -8.3382 1.0536 -1.6231 0
M  V30 105 H -6.3206 1.5460 -2.9158 0
M  V30 106 H -3.9174 -0.0173 0.2769 0
M  V30 107 C -3.7435 1.0894 -2.1735 0
M  V30 108 C -3.6346 2.1993 -3.0175 0
M  V30 109 C -2.4406 2.4541 -3.6607 0
M  V30 110 N -1.3651 1.6791 -3.4928 0
M  V30 111 C -1.4573 0.5884 -2.7217 0
M  V30 112 C -2.6205 0.2579 -2.0642 0
M  V30 113 H -4.4648 2.8738 -3.1497 0
M  V30 114 H -2.3228 3.3044 -4.3262 0
M  V30 115 H -0.5558 -0.0181 -2.6480 0
M  V30 116 H -2.6729 -0.6457 -1.4789 0
M  V30 117 C -1.0466 3.6961 4.9322 0
M  V30 118 C -1.0757 2.9395 5.8759 0
M  V30 119 C -0.9983 2.1487 7.0384 0
M  V30 120 C -1.0985 2.7521 8.2793 0
M  V30 121 C -0.9059 2.0203 9.4558 0
M  V30 122 C -0.5781 0.6882 9.4126 0
M  V30 123 C -0.4765 0.0297 8.1736 0
M  V30 124 C -0.1139 -1.3311 8.0571 0
M  V30 125 C -0.0615 -1.9173 6.8263 0
M  V30 126 N -0.3944 -1.2463 5.6964 0
M  V30 127 C -0.7041 0.0341 5.7602 0
M  V30 128 C -0.7284 0.7481 6.9685 0
M  V30 129 H -1.3131 3.8082 8.3390 0
M  V30 130 H -0.9950 2.5241 10.4062 0
M  V30 131 H -0.3936 0.1354 10.3203 0
M  V30 132 H 0.1230 -1.8932 8.9464 0
M  V30 133 H 0.2501 -2.9516 6.6976 0
M  V30 134 H -0.9614 0.5335 4.8291 0
M  V30 135 C -0.9123 4.5821 3.8416 0
M  V30 136 C -0.9783 5.9633 4.0517 0
M  V30 137 C -0.7641 6.8272 2.9935 0
M  V30 138 C -0.4792 6.3393 1.7293 0
M  V30 139 C -0.4161 4.9621 1.5025 0
M  V30 140 C -0.6455 4.0903 2.5655 0
M  V30 141 H -1.1871 6.3471 5.0385 0
M  V30 142 H -0.8086 7.8931 3.1576 0
M  V30 143 H -0.2725 7.0341 0.9309 0
M  V30 144 H -0.6436 3.0233 2.4105 0
M  V30 145 C -0.0964 4.4278 0.1753 0
M  V30 146 C -0.4885 5.0729 -1.0022 0
M  V30 147 C -0.2026 4.4985 -2.2238 0
M  V30 148 N 0.4291 3.3256 -2.3255 0
M  V30 149 C 0.8464 2.7069 -1.2138 0
M  V30 150 C 0.6154 3.2281 0.0391 0
M  V30 151 H -1.0351 6.0011 -0.9655 0
M  V30 152 H -0.4879 4.9747 -3.1574 0
M  V30 153 H 1.3777 1.7680 -1.3639 0
M  V30 154 H 0.9942 2.7231 0.9127 0
M  V30 END ATOM
M  V30 BEGIN BOND
M  V30 1 3 3 4
M  V30 2 1 4 5
M  V30 3 2 5 6
M  V30 4 1 6 7
M  V30 5 2 7 8
M  V30 6 1 8 9
M  V30 7 2 9 10
M  V30 8 1 10 11
M  V30 9 2 11 12
M  V30 10 1 12 13
M  V30 11 2 13 14
M  V30 12 1 14 5
M  V30 13 1 14 9
M  V30 14 1 6 15
M  V30 15 1 7 16
M  V30 16 1 8 17
M  V30 17 1 10 18
M  V30 18 1 11 19
M  V30 19 1 13 20
M  V30 20 2 21 22
M  V30 21 1 22 23
M  V30 22 2 23 24
M  V30 23 1 24 25
M  V30 24 2 25 26
M  V30 25 1 26 21
M  V30 26 1 22 27
M  V30 27 1 23 28
M  V30 28 1 24 29
M  V30 29 1 26 30
M  V30 30 2 31 32
M  V30 31 1 32 33
M  V30 32 2 33 34
M  V30 33 1 34 35
M  V30 34 2 35 36
M  V30 35 1 36 31
M  V30 36 1 32 37
M  V30 37 1 33 38
M  V30 38 1 35 39
M  V30 39 1 36 40
M  V30 40 1 3 21
M  V30 41 1 25 31
M  V30 42 3 41 42
M  V30 43 1 42 43
M  V30 44 2 43 44
M  V30 45 1 44 45
M  V30 46 2 45 46
M  V30 47 1 46 47
M  V30 48 2 47 48
M  V30 49 1 48 49
M  V30 50 2 49 50
M  V30 51 1 50 51
M  V30 52 2 51 52
M  V30 53 1 52 43
M  V30 54 1 52 47
M  V30 55 1 44 53
M  V30 56 1 45 54
M  V30 57 1 46 55
M  V30 58 1 48 56
M  V30 59 1 49 57
M  V30 60 1 51 58
M  V30 61 2 59 60
M  V30 62 1 60 61
M  V30 63 2 61 62
M  V30 64 1 62 63
M  V30 65 2 63 64
M  V30 66 1 64 59
M  V30 67 1 60 65
M  V30 68 1 61 66
M  V30 69 1 62 67
M  V30 70 1 64 68
M  V30 71 2 69 70
M  V30 72 1 70 71
M  V30 73 2 71 72
M  V30 74 1 72 73
M  V30 75 2 73 74
M  V30 76 1 74 69
M  V30 77 1 70 75
M  V30 78 1 71 76
M  V30 79 1 73 77
M  V30 80 1 74 78
M  V30 81 1 41 59
M  V30 82 1 63 69
M  V30 83 3 79 80
M  V30 84 1 80 81
M  V30 85 2 81 82
M  V30 86 1 82 83
M  V30 87 2 83 84
M  V30 88 1 84 85
M  V30 89 2 85 86
M  V30 90 1 86 87
M  V30 91 2 87 88
M  V30 92 1 88 89
M  V30 93 2 89 90
M  V30 94 1 90 81
M  V30 95 1 90 85
M  V30 96 1 82 91
M  V30 97 1 83 92
M  V30 98 1 84 93
M  V30 99 1 86 94
M  V30 100 1 87 95
M  V30 101 1 89 96
M  V30 102 2 97 98
M  V30 103 1 98 99
M  V30 104 2 99 100
M  V30 105 1 100 101
M  V30 106 2 101 102
M  V30 107 1 102 97
M  V30 108 1 98 103
M  V30 109 1 99 104
M  V30 110 1 100 105
M  V30 111 1 102 106
M  V30 112 2 107 108
M  V30 113 1 108 109
M  V30 114 2 109 110
M  V30 115 1 110 111
M  V30 116 2 111 112
M  V30 117 1 112 107
M  V30 118 1 108 113
M  V30 119 1 109 114
M  V30 120 1 111 115
M  V30 121 1 112 116
M  V30 122 1 79 97
M  V30 123 1 101 107
M  V30 124 3 117 118
M  V30 125 1 118 119
M  V30 126 2 119 120
M  V30 127 1 120 121
M  V30 128 2 121 122
M  V30 129 1 122 123
M  V30 130 2 123 124
M  V30 131 1 124 125
M  V30 132 2 125 126
M  V30 133 1 126 127
M  V30 134 2 127 128
M  V30 135 1 128 119
M  V30 136 1 128 123
M  V30 137 1 120 129
M  V30 138 1 121 130
M  V30 139 1 122 131
M  V30 140 1 124 132
M  V30 141 1 125 133
M  V30 142 1 127 134
M  V30 143 2 135 136
M  V30 144 1 136 137
M  V30 145 2 137 138
M  V30 146 1 138 139
M  V30 147 2 139 140
M  V30 148 1 140 135
M  V30 149 1 136 141
M  V30 150 1 137 142
M  V30 151 1 138 143
M  V30 152 1 140 144
M  V30 153 2 145 146
M  V30 154 1 146 147
M  V30 155 2 147 148
M  V30 156 1 148 149
M  V30 157 2 149 150
M  V30 158 1 150 145
M  V30 159 1 146 151
M  V30 160 1 147 152
M  V30 161 1 149 153
M  V30 162 1 150 154
M  V30 163 1 117 135
M  V30 164 1 139 145
M  V30 165 9 34 1
M  V30 166 9 72 1
M  V30 167 9 88 1
M  V30 168 9 126 1
M  V30 169 9 12 2
M  V30 170 9 50 2
M  V30 171 9 110 2
M  V30 172 9 148 2
M  V30 END BOND
M  V30 END CTAB
M  END

$$$$
