
     RDKit          3D

  0  0  0  0  0  0  0  0  0  0999 V3000
M  V30 BEGIN CTAB
M  V30 COUNTS 154 172 0 0 0
M  V30 BEGIN ATOM
M  V30 1 Pd -0.3423 -0.5784 -4.5499 0 CHG=2
M  V30 2 Pd 0.7023 0.7581 4.6038 0 CHG=2
M  V30 3 C -4.5897 -2.0719 3.4341 0
M  V30 4 C -4.3117 -1.7507 4.5668 0
M  V30 5 C -4.1313 -1.3086 5.8916 0
M  V30 6 C -5.1120 -1.5666 6.8327 0
M  V30 7 C -5.0272 -1.0419 8.1266 0
M  V30 8 C -3.9844 -0.2271 8.4907 0
M  V30 9 C -2.9579 0.0533 7.5704 0
M  V30 10 C -1.8725 0.9068 7.8713 0
M  V30 11 C -0.8939 1.1137 6.9437 0
M  V30 12 N -0.8987 0.4857 5.7421 0
M  V30 13 C -1.9123 -0.2900 5.4105 0
M  V30 14 C -3.0001 -0.5221 6.2669 0
M  V30 15 H -5.9639 -2.1696 6.5582 0
M  V30 16 H -5.8097 -1.2670 8.8353 0
M  V30 17 H -3.9408 0.2062 9.4776 0
M  V30 18 H -1.8317 1.3909 8.8340 0
M  V30 19 H -0.0642 1.7929 7.1286 0
M  V30 20 H -1.8764 -0.7698 4.4354 0
M  V30 21 C -4.9532 -2.3568 2.1001 0
M  V30 22 C -6.1790 -2.9717 1.8255 0
M  V30 23 C -6.5638 -3.1743 0.5130 0
M  V30 24 C -5.7507 -2.7702 -0.5325 0
M  V30 25 C -4.5208 -2.1598 -0.2740 0
M  V30 26 C -4.1261 -1.9669 1.0488 0
M  V30 27 H -6.8208 -3.2765 2.6377 0
M  V30 28 H -7.5130 -3.6429 0.3016 0
M  V30 29 H -6.0931 -2.9004 -1.5469 0
M  V30 30 H -3.1652 -1.5346 1.2773 0
M  V30 31 C -3.6538 -1.7096 -1.3669 0
M  V30 32 C -3.5832 -2.3857 -2.5893 0
M  V30 33 C -2.7067 -1.9495 -3.5617 0
M  V30 34 N -1.9007 -0.9010 -3.3711 0
M  V30 35 C -1.9790 -0.2138 -2.2248 0
M  V30 36 C -2.8431 -0.5763 -1.2164 0
M  V30 37 H -4.1861 -3.2606 -2.7699 0
M  V30 38 H -2.6296 -2.4482 -4.5235 0
M  V30 39 H -1.3172 0.6471 -2.1414 0
M  V30 40 H -2.9074 0.0180 -0.3194 0
M  V30 41 C 2.1524 -4.9734 3.1148 0
M  V30 42 C 2.2858 -4.5980 4.2572 0
M  V30 43 C 2.5881 -4.2139 5.5777 0
M  V30 44 C 3.1404 -5.1390 6.4455 0
M  V30 45 C 3.5659 -4.7650 7.7246 0
M  V30 46 C 3.4790 -3.4610 8.1441 0
M  V30 47 C 2.9136 -2.4878 7.3000 0
M  V30 48 C 2.8210 -1.1239 7.6582 0
M  V30 49 C 2.2345 -0.2358 6.8046 0
M  V30 50 N 1.6868 -0.6256 5.6273 0
M  V30 51 C 1.7843 -1.8831 5.2422 0
M  V30 52 C 2.4213 -2.8653 6.0167 0
M  V30 53 H 3.2592 -6.1622 6.1237 0
M  V30 54 H 3.9893 -5.5147 8.3755 0
M  V30 55 H 3.8421 -3.1687 9.1169 0
M  V30 56 H 3.2207 -0.7976 8.6049 0
M  V30 57 H 2.1801 0.8266 7.0322 0
M  V30 58 H 1.3333 -2.1506 4.2893 0
M  V30 59 C 2.0905 -5.3782 1.7639 0
M  V30 60 C 2.4815 -6.6719 1.4040 0
M  V30 61 C 2.4971 -7.0356 0.0700 0
M  V30 62 C 2.1354 -6.1306 -0.9134 0
M  V30 63 C 1.7363 -4.8366 -0.5692 0
M  V30 64 C 1.7072 -4.4733 0.7762 0
M  V30 65 H 2.7766 -7.3757 2.1670 0
M  V30 66 H 2.8054 -8.0321 -0.2077 0
M  V30 67 H 2.1986 -6.4251 -1.9491 0
M  V30 68 H 1.3645 -3.4951 1.0731 0
M  V30 69 C 1.3681 -3.8594 -1.5980 0
M  V30 70 C 0.7433 -4.2342 -2.7920 0
M  V30 71 C 0.3738 -3.2660 -3.7031 0
M  V30 72 N 0.5786 -1.9651 -3.4777 0
M  V30 73 C 1.2079 -1.5845 -2.3588 0
M  V30 74 C 1.6239 -2.4939 -1.4129 0
M  V30 75 H 0.5230 -5.2691 -2.9968 0
M  V30 76 H -0.1084 -3.5225 -4.6419 0
M  V30 77 H 1.3687 -0.5133 -2.2456 0
M  V30 78 H 2.1586 -2.1582 -0.5393 0
M  V30 79 C 4.9472 2.2561 -3.3798 0
M  V30 80 C 4.6717 1.9289 -4.5115 0
M  V30 81 C 4.4951 1.4801 -5.8345 0
M  V30 82 C 5.4792 1.7325 -6.7737 0
M  V30 83 C 5.3984 1.2013 -8.0652 0
M  V30 84 C 4.3560 0.3857 -8.4286 0
M  V30 85 C 3.3261 0.1109 -7.5105 0
M  V30 86 C 2.2408 -0.7428 -7.8107 0
M  V30 87 C 1.2588 -0.9443 -6.8854 0
M  V30 88 N 1.2604 -0.3107 -5.6868 0
M  V30 89 C 2.2737 0.4658 -5.3556 0
M  V30 90 C 3.3644 0.6928 -6.2097 0
M  V30 91 H 6.3307 2.3360 -6.4993 0
M  V30 92 H 6.1835 1.4219 -8.7722 0
M  V30 93 H 4.3153 -0.0526 -9.4134 0
M  V30 94 H 2.2026 -1.2315 -8.7712 0
M  V30 95 H 0.4291 -1.6235 -7.0699 0
M  V30 96 H 2.2348 0.9505 -4.3830 0
M  V30 97 C 5.3075 2.5477 -2.0467 0
M  V30 98 C 6.5284 3.1727 -1.7728 0
M  V30 99 C 6.9106 3.3821 -0.4604 0
M  V30 100 C 6.0997 2.9747 0.5855 0
M  V30 101 C 4.8748 2.3543 0.3278 0
M  V30 102 C 4.4826 2.1547 -0.9947 0
M  V30 103 H 7.1686 3.4801 -2.5853 0
M  V30 104 H 7.8561 3.8585 -0.2496 0
M  V30 105 H 6.4403 3.1104 1.5998 0
M  V30 106 H 3.5254 1.7140 -1.2226 0
M  V30 107 C 4.0101 1.9008 1.4212 0
M  V30 108 C 3.9332 2.5800 2.6414 0
M  V30 109 C 3.0587 2.1405 3.6141 0
M  V30 110 N 2.2600 1.0859 3.4257 0
M  V30 111 C 2.3450 0.3957 2.2816 0
M  V30 112 C 3.2078 0.7611 1.2733 0
M  V30 113 H 4.5297 3.4597 2.8201 0
M  V30 114 H 2.9767 2.6418 4.5742 0
M  V30 115 H 1.6894 -0.4701 2.2000 0
M  V30 116 H 3.2776 0.1643 0.3785 0
M  V30 117 C -1.8176 5.1479 -3.0569 0
M  V30 118 C -1.9467 4.7732 -4.2000 0
M  V30 119 C -2.2443 4.3896 -5.5218 0
M  V30 120 C -2.7997 5.3131 -6.3893 0
M  V30 121 C -3.2204 4.9390 -7.6698 0
M  V30 122 C -3.1257 3.6362 -8.0912 0
M  V30 123 C -2.5572 2.6647 -7.2475 0
M  V30 124 C -2.4570 1.3019 -7.6074 0
M  V30 125 C -1.8682 0.4152 -6.7539 0
M  V30 126 N -1.3250 0.8058 -5.5749 0
M  V30 127 C -1.4293 2.0623 -5.1880 0
M  V30 128 C -2.0694 3.0425 -5.9625 0
M  V30 129 H -2.9244 6.3353 -6.0660 0
M  V30 130 H -3.6464 5.6875 -8.3204 0
M  V30 131 H -3.4852 3.3435 -9.0652 0
M  V30 132 H -2.8530 0.9749 -8.5556 0
M  V30 133 H -1.8083 -0.6465 -6.9831 0
M  V30 134 H -0.9819 2.3307 -4.2339 0
M  V30 135 C -1.7603 5.5508 -1.7053 0
M  V30 136 C -2.1634 6.8403 -1.3433 0
M  V30 137 C -2.1829 7.2016 -0.0088 0
M  V30 138 C -1.8131 6.2983 0.9735 0
M  V30 139 C -1.4021 5.0086 0.6270 0
M  V30 140 C -1.3689 4.6479 -0.7189 0
M  V30 141 H -2.4648 7.5425 -2.1054 0
M  V30 142 H -2.5004 8.1947 0.2705 0
M  V30 143 H -1.8794 6.5903 2.0094 0
M  V30 144 H -1.0171 3.6734 -1.0174 0
M  V30 145 C -1.0260 4.0329 1.6545 0
M  V30 146 C -0.4052 4.4107 2.8496 0
M  V30 147 C -0.0289 3.4440 3.7594 0
M  V30 148 N -0.2232 2.1419 3.5318 0
M  V30 149 C -0.8482 1.7580 2.4116 0
M  V30 150 C -1.2703 2.6656 1.4667 0
M  V30 151 H -0.1934 5.4471 3.0561 0
M  V30 152 H 0.4505 3.7026 4.6991 0
M  V30 153 H -0.9999 0.6856 2.2962 0
M  V30 154 H -1.8010 2.3273 0.5917 0
M  V30 END ATOM
M  V30 BEGIN BOND
M  V30 1 3 3 4
M  V30 2 1 4 5
M  V30 3 2 5 6
M  V30 4 1 6 7
M  V30 5 2 7 8
M  V30 6 1 8 9
M  V30 7 2 9 10
M  V30 8 1 10 11
M  V30 9 2 11 12
M  V30 10 1 12 13
M  V30 11 2 13 14
M  V30 12 1 14 5
M  V30 13 1 14 9
M  V30 14 1 6 15
M  V30 15 1 7 16
M  V30 16 1 8 17
M  V30 17 1 10 18
M  V30 18 1 11 19
M  V30 19 1 13 20
M  V30 20 2 21 22
M  V30 21 1 22 23
M  V30 22 2 23 24
M  V30 23 1 24 25
M  V30 24 2 25 26
M  V30 25 1 26 21
M  V30 26 1 22 27
M  V30 27 1 23 28
M  V30 28 1 24 29
M  V30 29 1 26 30
M  V30 30 2 31 32
M  V30 31 1 32 33
M  V30 32 2 33 34
M  V30 33 1 34 35
M  V30 34 2 35 36
M  V30 35 1 36 31
M  V30 36 1 32 37
M  V30 37 1 33 38
M  V30 38 1 35 39
M  V30 39 1 36 40
M  V30 40 1 3 21
M  V30 41 1 25 31
M  V30 42 3 41 42
M  V30 43 1 42 43
M  V30 44 2 43 44
M  V30 45 1 44 45
M  V30 46 2 45 46
M  V30 47 1 46 47
M  V30 48 2 47 48
M  V30 49 1 48 49
M  V30 50 2 49 50
M  V30 51 1 50 51
M  V30 52 2 51 52
M  V30 53 1 52 43
M  V30 54 1 52 47
M  V30 55 1 44 53
M  V30 56 1 45 54
M  V30 57 1 46 55
M  V30 58 1 48 56
M  V30 59 1 49 57
M  V30 60 1 51 58
M  V30 61 2 59 60
M  V30 62 1 60 61
M  V30 63 2 61 62
M  V30 64 1 62 63
M  V30 65 2 63 64
M  V30 66 1 64 59
M  V30 67 1 60 65
M  V30 68 1 61 66
M  V30 69 1 62 67
M  V30 70 1 64 68
M  V30 71 2 69 70
M  V30 72 1 70 71
M  V30 73 2 71 72
M  V30 74 1 72 73
M  V30 75 2 73 74
M  V30 76 1 74 69
M  V30 77 1 70 75
M  V30 78 1 71 76
M  V30 79 1 73 77
M  V30 80 1 74 78
M  V30 81 1 41 59
M  V30 82 1 63 69
M  V30 83 3 79 80
M  V30 84 1 80 81
M  V30 85 2 81 82
M  V30 86 1 82 83
M  V30 87 2 83 84
M  V30 88 1 84 85
M  V30 89 2 85 86
M  V30 90 1 86 87
M  V30 91 2 87 88
M  V30 92 1 88 89
M  V30 93 2 89 90
M  V30 94 1 90 81
M  V30 95 1 90 85
M  V30 96 1 82 91
M  V30 97 1 83 92
M  V30 98 1 84 93
M  V30 99 1 86 94
M  V30 100 1 87 95
M  V30 101 1 89 96
M  V30 102 2 97 98
M  V30 103 1 98 99
M  V30 104 2 99 100
M  V30 105 1 100 101
M  V30 106 2 101 102
M  V30 107 1 102 97
M  V30 108 1 98 103
M  V30 109 1 99 104
M  V30 110 1 100 105
M  V30 111 1 102 106
M  V30 112 2 107 108
M  V30 113 1 108 109
M  V30 114 2 109 110
M  V30 115 1 110 111
M  V30 116 2 111 112
M  V30 117 1 112 107
M  V30 118 1 108 113
M  V30 119 1 109 114
M  V30 120 1 111 115
M  V30 121 1 112 116
M  V30 122 1 79 97
M  V30 123 1 101 107
M  V30 124 3 117 118
M  V30 125 1 118 119
M  V30 126 2 119 120
M  V30 127 1 120 121
M  V30 128 2 121 122
M  V30 129 1 122 123
M  V30 130 2 123 124
M  V30 131 1 124 125
M  V30 132 2 125 126
M  V30 133 1 126 127
M  V30 134 2 127 128
M  V30 135 1 128 119
M  V30 136 1 128 123
M  V30 137 1 120 129
M  V30 138 1 121 130
M  V30 139 1 122 131
M  V30 140 1 124 132
M  V30 141 1 125 133
M  V30 142 1 127 134
M  V30 143 2 135 136
M  V30 144 1 136 137
M  V30 145 2 137 138
M  V30 146 1 138 139
M  V30 147 2 139 140
M  V30 148 1 140 135
M  V30 149 1 136 141
M  V30 150 1 137 142
M  V30 151 1 138 143
M  V30 152 1 140 144
M  V30 153 2 145 146
M  V30 154 1 146 147
M  V30 155 2 147 148
M  V30 156 1 148 149
M  V30 157 2 149 150
M  V30 158 1 150 145
M  V30 159 1 146 151
M  V30 160 1 147 152
M  V30 161 1 149 153
M  V30 162 1 150 154
M  V30 163 1 117 135
M  V30 164 1 139 145
M  V30 165 9 34 1
M  V30 166 9 72 1
M  V30 167 9 88 1
M  V30 168 9 126 1
M  V30 169 9 12 2
M  V30 170 9 50 2
M  V30 171 9 110 2
M  V30 172 9 148 2
M  V30 END BOND
M  V30 END CTAB
M  END

$$$$
