
     RDKit          3D

  0  0  0  0  0  0  0  0  0  0999 V3000
M  V30 BEGIN CTAB
M  V30 COUNTS 154 172 0 0 0
M  V30 BEGIN ATOM
M  V30 1 Pd -0.4511 4.4814 0.1685 0 CHG=2
M  V30 2 Pd -0.6291 -4.8050 -0.4621 0 CHG=2
M  V30 3 C 5.1032 -2.8092 0.2727 0
M  V30 4 C 4.8890 -3.9876 0.1018 0
M  V30 5 C 4.7496 -5.3534 -0.2116 0
M  V30 6 C 5.8779 -6.1497 -0.2930 0
M  V30 7 C 5.7942 -7.4797 -0.7182 0
M  V30 8 C 4.5933 -8.0241 -1.0998 0
M  V30 9 C 3.4176 -7.2556 -1.0223 0
M  V30 10 C 2.1552 -7.7454 -1.4266 0
M  V30 11 C 1.0483 -6.9585 -1.2977 0
M  V30 12 N 1.1066 -5.7218 -0.7451 0
M  V30 13 C 2.2711 -5.2158 -0.3889 0
M  V30 14 C 3.4782 -5.9174 -0.5348 0
M  V30 15 H 6.8403 -5.7322 -0.0392 0
M  V30 16 H 6.6954 -8.0717 -0.7665 0
M  V30 17 H 4.5375 -9.0385 -1.4625 0
M  V30 18 H 2.0809 -8.7391 -1.8385 0
M  V30 19 H 0.0678 -7.2903 -1.6330 0
M  V30 20 H 2.2711 -4.2192 0.0459 0
M  V30 21 C 5.3564 -1.4243 0.3739 0
M  V30 22 C 6.6696 -0.9613 0.5059 0
M  V30 23 C 6.9169 0.3991 0.5233 0
M  V30 24 C 5.8787 1.3078 0.4060 0
M  V30 25 C 4.5611 0.8607 0.2791 0
M  V30 26 C 4.3094 -0.5102 0.2746 0
M  V30 27 H 7.4824 -1.6668 0.5850 0
M  V30 28 H 7.9313 0.7557 0.6186 0
M  V30 29 H 6.1023 2.3625 0.3787 0
M  V30 30 H 3.2992 -0.8825 0.2178 0
M  V30 31 C 3.4504 1.8066 0.1365 0
M  V30 32 C 3.4526 3.0585 0.7602 0
M  V30 33 C 2.3545 3.8850 0.6375 0
M  V30 34 N 1.2681 3.5232 -0.0511 0
M  V30 35 C 1.2587 2.3467 -0.6901 0
M  V30 36 C 2.3246 1.4777 -0.6308 0
M  V30 37 H 4.2916 3.3735 1.3590 0
M  V30 38 H 2.3247 4.8649 1.1049 0
M  V30 39 H 0.3567 2.1220 -1.2575 0
M  V30 40 H 2.3004 0.5533 -1.1848 0
M  V30 41 C -0.1824 -3.0802 5.3683 0
M  V30 42 C -0.2800 -4.2548 5.0958 0
M  V30 43 C -0.5129 -5.6267 4.8799 0
M  V30 44 C -0.5838 -6.4833 5.9638 0
M  V30 45 C -0.9332 -7.8280 5.7999 0
M  V30 46 C -1.2490 -8.3292 4.5617 0
M  V30 47 C -1.1795 -7.4980 3.4288 0
M  V30 48 C -1.5193 -7.9423 2.1311 0
M  V30 49 C -1.4019 -7.0929 1.0699 0
M  V30 50 N -0.9198 -5.8334 1.2080 0
M  V30 51 C -0.6252 -5.3709 2.4074 0
M  V30 52 C -0.7675 -6.1410 3.5722 0
M  V30 53 H -0.3818 -6.1033 6.9535 0
M  V30 54 H -0.9754 -8.4675 6.6683 0
M  V30 55 H -1.5541 -9.3572 4.4438 0
M  V30 56 H -1.8738 -8.9513 1.9936 0
M  V30 57 H -1.6902 -7.3902 0.0640 0
M  V30 58 H -0.2445 -4.3541 2.4715 0
M  V30 59 C -0.1694 -1.7054 5.6882 0
M  V30 60 C -0.1308 -1.2999 7.0262 0
M  V30 61 C -0.2017 0.0459 7.3356 0
M  V30 62 C -0.3164 0.9959 6.3348 0
M  V30 63 C -0.3497 0.6070 4.9932 0
M  V30 64 C -0.2645 -0.7485 4.6798 0
M  V30 65 H -0.0547 -2.0387 7.8092 0
M  V30 66 H -0.1787 0.3578 8.3687 0
M  V30 67 H -0.4145 2.0356 6.6045 0
M  V30 68 H -0.2466 -1.0740 3.6521 0
M  V30 69 C -0.4896 1.5974 3.9216 0
M  V30 70 C 0.0564 2.8815 4.0178 0
M  V30 71 C -0.0631 3.7561 2.9572 0
M  V30 72 N -0.6751 3.4126 1.8203 0
M  V30 73 C -1.2377 2.2019 1.7182 0
M  V30 74 C -1.1769 1.2830 2.7412 0
M  V30 75 H 0.5930 3.1867 4.9012 0
M  V30 76 H 0.3445 4.7619 3.0004 0
M  V30 77 H -1.7441 1.9917 0.7773 0
M  V30 78 H -1.6698 0.3296 2.6410 0
M  V30 79 C -6.1825 2.4852 -0.5713 0
M  V30 80 C -5.9684 3.6626 -0.3939 0
M  V30 81 C -5.8299 5.0268 -0.0729 0
M  V30 82 C -6.9592 5.8211 0.0150 0
M  V30 83 C -6.8766 7.1488 0.4479 0
M  V30 84 C -5.6758 7.6926 0.8304 0
M  V30 85 C -4.4991 6.9262 0.7463 0
M  V30 86 C -3.2366 7.4155 1.1509 0
M  V30 87 C -2.1289 6.6307 1.0157 0
M  V30 88 N -2.1865 5.3970 0.4565 0
M  V30 89 C -3.3511 4.8914 0.0995 0
M  V30 90 C -4.5588 5.5907 0.2513 0
M  V30 91 H -7.9214 5.4038 -0.2393 0
M  V30 92 H -7.7784 7.7393 0.5012 0
M  V30 93 H -5.6206 8.7049 1.1988 0
M  V30 94 H -3.1628 8.4070 1.5680 0
M  V30 95 H -1.1483 6.9621 1.3509 0
M  V30 96 H -3.3504 3.8972 -0.3410 0
M  V30 97 C -6.4353 1.1008 -0.6800 0
M  V30 98 C -7.7475 0.6385 -0.8232 0
M  V30 99 C -7.9948 -0.7217 -0.8478 0
M  V30 100 C -6.9575 -1.6311 -0.7267 0
M  V30 101 C -5.6409 -1.1846 -0.5885 0
M  V30 102 C -5.3892 0.1863 -0.5770 0
M  V30 103 H -8.5597 1.3443 -0.9053 0
M  V30 104 H -9.0085 -1.0779 -0.9518 0
M  V30 105 H -7.1814 -2.6858 -0.7052 0
M  V30 106 H -4.3793 0.5582 -0.5111 0
M  V30 107 C -4.5311 -2.1310 -0.4421 0
M  V30 108 C -4.5289 -3.3802 -1.0711 0
M  V30 109 C -3.4314 -4.2070 -0.9446 0
M  V30 110 N -2.3494 -3.8478 -0.2475 0
M  V30 111 C -2.3448 -2.6741 0.3967 0
M  V30 112 C -3.4105 -1.8052 0.3342 0
M  V30 113 H -5.3638 -3.6929 -1.6767 0
M  V30 114 H -3.3982 -5.1850 -1.4161 0
M  V30 115 H -1.4467 -2.4516 0.9709 0
M  V30 116 H -3.3902 -0.8834 0.8925 0
M  V30 117 C -0.8721 2.7560 -5.6659 0
M  V30 118 C -0.7788 3.9309 -5.3925 0
M  V30 119 C -0.5505 5.3033 -5.1753 0
M  V30 120 C -0.4762 6.1601 -6.2589 0
M  V30 121 C -0.1314 7.5057 -6.0933 0
M  V30 122 C 0.1766 8.0078 -4.8536 0
M  V30 123 C 0.1034 7.1764 -3.7210 0
M  V30 124 C 0.4357 7.6215 -2.4217 0
M  V30 125 C 0.3155 6.7717 -1.3611 0
M  V30 126 N -0.1624 5.5109 -1.5014 0
M  V30 127 C -0.4501 5.0476 -2.7023 0
M  V30 128 C -0.3041 5.8182 -3.8663 0
M  V30 129 H -0.6721 5.7794 -7.2497 0
M  V30 130 H -0.0864 8.1453 -6.9616 0
M  V30 131 H 0.4782 9.0365 -4.7341 0
M  V30 132 H 0.7867 8.6315 -2.2824 0
M  V30 133 H 0.5982 7.0700 -0.3538 0
M  V30 134 H -0.8275 4.0299 -2.7684 0
M  V30 135 C -0.8800 1.3811 -5.9856 0
M  V30 136 C -0.9056 0.9755 -7.3239 0
M  V30 137 C -0.8302 -0.3703 -7.6323 0
M  V30 138 C -0.7238 -1.3202 -6.6304 0
M  V30 139 C -0.7034 -0.9309 -5.2887 0
M  V30 140 C -0.7932 0.4245 -4.9763 0
M  V30 141 H -0.9752 1.7140 -8.1077 0
M  V30 142 H -0.8432 -0.6823 -8.6656 0
M  V30 143 H -0.6219 -2.3596 -6.8989 0
M  V30 144 H -0.8211 0.7502 -3.9488 0
M  V30 145 C -0.5714 -1.9209 -4.2156 0
M  V30 146 C -1.1147 -3.2058 -4.3160 0
M  V30 147 C -1.0022 -4.0802 -3.2545 0
M  V30 148 N -0.3998 -3.7357 -2.1128 0
M  V30 149 C 0.1597 -2.5239 -2.0062 0
M  V30 150 C 0.1054 -1.6051 -3.0296 0
M  V30 151 H -1.6436 -3.5120 -5.2038 0
M  V30 152 H -1.4078 -5.0867 -3.3007 0
M  V30 153 H 0.6580 -2.3125 -1.0610 0
M  V30 154 H 0.5953 -0.6507 -2.9255 0
M  V30 END ATOM
M  V30 BEGIN BOND
M  V30 1 3 3 4
M  V30 2 1 4 5
M  V30 3 2 5 6
M  V30 4 1 6 7
M  V30 5 2 7 8
M  V30 6 1 8 9
M  V30 7 2 9 10
M  V30 8 1 10 11
M  V30 9 2 11 12
M  V30 10 1 12 13
M  V30 11 2 13 14
M  V30 12 1 14 5
M  V30 13 1 14 9
M  V30 14 1 6 15
M  V30 15 1 7 16
M  V30 16 1 8 17
M  V30 17 1 10 18
M  V30 18 1 11 19
M  V30 19 1 13 20
M  V30 20 2 21 22
M  V30 21 1 22 23
M  V30 22 2 23 24
M  V30 23 1 24 25
M  V30 24 2 25 26
M  V30 25 1 26 21
M  V30 26 1 22 27
M  V30 27 1 23 28
M  V30 28 1 24 29
M  V30 29 1 26 30
M  V30 30 2 31 32
M  V30 31 1 32 33
M  V30 32 2 33 34
M  V30 33 1 34 35
M  V30 34 2 35 36
M  V30 35 1 36 31
M  V30 36 1 32 37
M  V30 37 1 33 38
M  V30 38 1 35 39
M  V30 39 1 36 40
M  V30 40 1 3 21
M  V30 41 1 25 31
M  V30 42 3 41 42
M  V30 43 1 42 43
M  V30 44 2 43 44
M  V30 45 1 44 45
M  V30 46 2 45 46
M  V30 47 1 46 47
M  V30 48 2 47 48
M  V30 49 1 48 49
M  V30 50 2 49 50
M  V30 51 1 50 51
M  V30 52 2 51 52
M  V30 53 1 52 43
M  V30 54 1 52 47
M  V30 55 1 44 53
M  V30 56 1 45 54
M  V30 57 1 46 55
M  V30 58 1 48 56
M  V30 59 1 49 57
M  V30 60 1 51 58
M  V30 61 2 59 60
M  V30 62 1 60 61
M  V30 63 2 61 62
M  V30 64 1 62 63
M  V30 65 2 63 64
M  V30 66 1 64 59
M  V30 67 1 60 65
M  V30 68 1 61 66
M  V30 69 1 62 67
M  V30 70 1 64 68
M  V30 71 2 69 70
M  V30 72 1 70 71
M  V30 73 2 71 72
M  V30 74 1 72 73
M  V30 75 2 73 74
M  V30 76 1 74 69
M  V30 77 1 70 75
M  V30 78 1 71 76
M  V30 79 1 73 77
M  V30 80 1 74 78
M  V30 81 1 41 59
M  V30 82 1 63 69
M  V30 83 3 79 80
M  V30 84 1 80 81
M  V30 85 2 81 82
M  V30 86 1 82 83
M  V30 87 2 83 84
M  V30 88 1 84 85
M  V30 89 2 85 86
M  V30 90 1 86 87
M  V30 91 2 87 88
M  V30 92 1 88 89
M  V30 93 2 89 90
M  V30 94 1 90 81
M  V30 95 1 90 85
M  V30 96 1 82 91
M  V30 97 1 83 92
M  V30 98 1 84 93
M  V30 99 1 86 94
M  V30 100 1 87 95
M  V30 101 1 89 96
M  V30 102 2 97 98
M  V30 103 1 98 99
M  V30 104 2 99 100
M  V30 105 1 100 101
M  V30 106 2 101 102
M  V30 107 1 102 97
M  V30 108 1 98 103
M  V30 109 1 99 104
M  V30 110 1 100 105
M  V30 111 1 102 106
M  V30 112 2 107 108
M  V30 113 1 108 109
M  V30 114 2 109 110
M  V30 115 1 110 111
M  V30 116 2 111 112
M  V30 117 1 112 107
M  V30 118 1 108 113
M  V30 119 1 109 114
M  V30 120 1 111 115
M  V30 121 1 112 116
M  V30 122 1 79 97
M  V30 123 1 101 107
M  V30 124 3 117 118
M  V30 125 1 118 119
M  V30 126 2 119 120
M  V30 127 1 120 121
M  V30 128 2 121 122
M  V30 129 1 122 123
M  V30 130 2 123 124
M  V30 131 1 124 125
M  V30 132 2 125 126
M  V30 133 1 126 127
M  V30 134 2 127 128
M  V30 135 1 128 119
M  V30 136 1 128 123
M  V30 137 1 120 129
M  V30 138 1 121 130
M  V30 139 1 122 131
M  V30 140 1 124 132
M  V30 141 1 125 133
M  V30 142 1 127 134
M  V30 143 2 135 136
M  V30 144 1 136 137
M  V30 145 2 137 138
M  V30 146 1 138 139
M  V30 147 2 139 140
M  V30 148 1 140 135
M  V30 149 1 136 141
M  V30 150 1 137 142
M  V30 151 1 138 143
M  V30 152 1 140 144
M  V30 153 2 145 146
M  V30 154 1 146 147
M  V30 155 2 147 148
M  V30 156 1 148 149
M  V30 157 2 149 150
M  V30 158 1 150 145
M  V30 159 1 146 151
M  V30 160 1 147 152
M  V30 161 1 149 153
M  V30 162 1 150 154
M  V30 163 1 117 135
M  V30 164 1 139 145
M  V30 165 9 34 1
M  V30 166 9 72 1
M  V30 167 9 88 1
M  V30 168 9 126 1
M  V30 169 9 12 2
M  V30 170 9 50 2
M  V30 171 9 110 2
M  V30 172 9 148 2
M  V30 END BOND
M  V30 END CTAB
M  END

$$$$
