
     RDKit          3D

  0  0  0  0  0  0  0  0  0  0999 V3000
M  V30 BEGIN CTAB
M  V30 COUNTS 154 172 0 0 0
M  V30 BEGIN ATOM
M  V30 1 Pd 1.1270 3.5162 -3.6280 0 CHG=2
M  V30 2 Pd 0.0191 -2.6771 3.2337 0 CHG=2
M  V30 3 C 5.8373 -0.8226 2.9296 0
M  V30 4 C 5.5156 -1.6820 3.7181 0
M  V30 5 C 5.2612 -2.7682 4.5775 0
M  V30 6 C 6.3008 -3.3108 5.3114 0
M  V30 7 C 6.1159 -4.4628 6.0830 0
M  V30 8 C 4.9049 -5.1086 6.1077 0
M  V30 9 C 3.8158 -4.5866 5.3863 0
M  V30 10 C 2.5519 -5.2173 5.3458 0
M  V30 11 C 1.5281 -4.6427 4.6509 0
M  V30 12 N 1.6659 -3.4475 4.0260 0
M  V30 13 C 2.8392 -2.8456 4.0109 0
M  V30 14 C 3.9728 -3.3805 4.6428 0
M  V30 15 H 7.2741 -2.8459 5.2749 0
M  V30 16 H 6.9493 -4.8561 6.6450 0
M  V30 17 H 4.7755 -6.0176 6.6740 0
M  V30 18 H 2.4110 -6.1526 5.8635 0
M  V30 19 H 0.5536 -5.1196 4.5685 0
M  V30 20 H 2.9048 -1.8911 3.4942 0
M  V30 21 C 6.2262 0.1086 1.9427 0
M  V30 22 C 7.5631 0.5083 1.8465 0
M  V30 23 C 7.9514 1.3582 0.8273 0
M  V30 24 C 7.0317 1.8136 -0.1023 0
M  V30 25 C 5.6917 1.4276 -0.0160 0
M  V30 26 C 5.2967 0.5814 1.0186 0
M  V30 27 H 8.2849 0.1454 2.5619 0
M  V30 28 H 8.9846 1.6610 0.7497 0
M  V30 29 H 7.3681 2.4406 -0.9128 0
M  V30 30 H 4.2623 0.2994 1.1324 0
M  V30 31 C 4.7065 1.8852 -1.0004 0
M  V30 32 C 4.7838 3.1455 -1.6021 0
M  V30 33 C 3.7965 3.5456 -2.4792 0
M  V30 34 N 2.7471 2.7703 -2.7673 0
M  V30 35 C 2.6722 1.5441 -2.2348 0
M  V30 36 C 3.6290 1.0676 -1.3676 0
M  V30 37 H 5.5917 3.8190 -1.3669 0
M  V30 38 H 3.8277 4.5154 -2.9672 0
M  V30 39 H 1.8086 0.9502 -2.5306 0
M  V30 40 H 3.5584 0.0630 -0.9830 0
M  V30 41 C 0.0984 2.9902 5.4799 0
M  V30 42 C -0.0980 2.0538 6.2204 0
M  V30 43 C -0.4547 1.0401 7.1304 0
M  V30 44 C -0.7179 1.3706 8.4477 0
M  V30 45 C -1.1918 0.4136 9.3514 0
M  V30 46 C -1.4418 -0.8746 8.9487 0
M  V30 47 C -1.1780 -1.2593 7.6214 0
M  V30 48 C -1.4401 -2.5598 7.1346 0
M  V30 49 C -1.1336 -2.8763 5.8433 0
M  V30 50 N -0.5351 -1.9908 5.0095 0
M  V30 51 C -0.3066 -0.7572 5.4160 0
M  V30 52 C -0.6389 -0.3104 6.7045 0
M  V30 53 H -0.5703 2.3871 8.7785 0
M  V30 54 H -1.3833 0.7071 10.3722 0
M  V30 55 H -1.8424 -1.6007 9.6386 0
M  V30 56 H -1.8857 -3.2901 7.7908 0
M  V30 57 H -1.3564 -3.8558 5.4257 0
M  V30 58 H 0.1727 -0.0797 4.7129 0
M  V30 59 C 0.2280 4.0858 4.5994 0
M  V30 60 C 0.1839 5.3917 5.0983 0
M  V30 61 C 0.2283 6.4606 4.2222 0
M  V30 62 C 0.3100 6.2515 2.8559 0
M  V30 63 C 0.3614 4.9530 2.3427 0
M  V30 64 C 0.3305 3.8751 3.2259 0
M  V30 65 H 0.1069 5.5580 6.1618 0
M  V30 66 H 0.1875 7.4681 4.6074 0
M  V30 67 H 0.2985 7.1011 2.1916 0
M  V30 68 H 0.4098 2.8638 2.8605 0
M  V30 69 C 0.4291 4.7124 0.8982 0
M  V30 70 C 1.0975 5.5805 0.0288 0
M  V30 71 C 1.1721 5.2779 -1.3154 0
M  V30 72 N 0.6363 4.1638 -1.8222 0
M  V30 73 C -0.0402 3.3359 -1.0161 0
M  V30 74 C -0.1741 3.5812 0.3317 0
M  V30 75 H 1.5784 6.4702 0.4013 0
M  V30 76 H 1.6788 5.9322 -2.0188 0
M  V30 77 H -0.4757 2.4593 -1.4936 0
M  V30 78 H -0.7542 2.9132 0.9473 0
M  V30 79 C -4.6899 1.6576 -3.3264 0
M  V30 80 C -4.3690 2.5215 -4.1102 0
M  V30 81 C -4.1165 3.6127 -4.9639 0
M  V30 82 C -5.1578 4.1593 -5.6925 0
M  V30 83 C -4.9750 5.3159 -6.4577 0
M  V30 84 C -3.7642 5.9620 -6.4814 0
M  V30 85 C -2.6734 5.4361 -5.7655 0
M  V30 86 C -1.4094 6.0667 -5.7243 0
M  V30 87 C -0.3839 5.4885 -5.0350 0
M  V30 88 N -0.5202 4.2898 -4.4162 0
M  V30 89 C -1.6934 3.6876 -4.4019 0
M  V30 90 C -2.8285 4.2257 -5.0285 0
M  V30 91 H -6.1309 3.6940 -5.6563 0
M  V30 92 H -5.8097 5.7122 -7.0155 0
M  V30 93 H -3.6361 6.8742 -7.0427 0
M  V30 94 H -1.2697 7.0048 -6.2373 0
M  V30 95 H 0.5906 5.9651 -4.9522 0
M  V30 96 H -1.7575 2.7301 -3.8905 0
M  V30 97 C -5.0777 0.7208 -2.3445 0
M  V30 98 C -6.4124 0.3127 -2.2554 0
M  V30 99 C -6.8000 -0.5429 -1.2406 0
M  V30 100 C -5.8816 -0.9956 -0.3084 0
M  V30 101 C -4.5437 -0.6012 -0.3874 0
M  V30 102 C -4.1494 0.2506 -1.4178 0
M  V30 103 H -7.1334 0.6734 -2.9728 0
M  V30 104 H -7.8317 -0.8523 -1.1685 0
M  V30 105 H -6.2178 -1.6272 0.4986 0
M  V30 106 H -3.1162 0.5395 -1.5258 0
M  V30 107 C -3.5599 -1.0560 0.5995 0
M  V30 108 C -3.6320 -2.3188 1.1965 0
M  V30 109 C -2.6457 -2.7161 2.0759 0
M  V30 110 N -1.6017 -1.9358 2.3706 0
M  V30 111 C -1.5324 -0.7072 1.8428 0
M  V30 112 C -2.4887 -0.2332 0.9737 0
M  V30 113 H -4.4350 -2.9962 0.9560 0
M  V30 114 H -2.6730 -3.6878 2.5605 0
M  V30 115 H -0.6735 -0.1093 2.1440 0
M  V30 116 H -2.4227 0.7732 0.5933 0
M  V30 117 C 1.0734 -2.1543 -5.8724 0
M  V30 118 C 1.2655 -1.2171 -6.6131 0
M  V30 119 C 1.6175 -0.2021 -7.5235 0
M  V30 120 C 1.8841 -0.5322 -8.8402 0
M  V30 121 C 2.3534 0.4266 -9.7443 0
M  V30 122 C 2.5956 1.7165 -9.3424 0
M  V30 123 C 2.3282 2.1008 -8.0157 0
M  V30 124 C 2.5827 3.4030 -7.5297 0
M  V30 125 C 2.2736 3.7189 -6.2389 0
M  V30 126 N 1.6792 2.8308 -5.4048 0
M  V30 127 C 1.4576 1.5956 -5.8106 0
M  V30 128 C 1.7936 1.1498 -7.0984 0
M  V30 129 H 1.7426 -1.5500 -9.1704 0
M  V30 130 H 2.5477 0.1333 -10.7647 0
M  V30 131 H 2.9927 2.4443 -10.0324 0
M  V30 132 H 3.0249 4.1354 -8.1861 0
M  V30 133 H 2.4908 4.6998 -5.8219 0
M  V30 134 H 0.9817 0.9160 -5.1075 0
M  V30 135 C 0.9488 -3.2498 -4.9911 0
M  V30 136 C 1.0058 -4.5559 -5.4881 0
M  V30 137 C 0.9658 -5.6240 -4.6109 0
M  V30 138 C 0.8758 -5.4140 -3.2452 0
M  V30 139 C 0.8117 -4.1152 -2.7340 0
M  V30 140 C 0.8380 -3.0382 -3.6183 0
M  V30 141 H 1.0893 -4.7229 -6.5510 0
M  V30 142 H 1.0165 -6.6316 -4.9946 0
M  V30 143 H 0.8910 -6.2625 -2.5797 0
M  V30 144 H 0.7488 -2.0272 -3.2546 0
M  V30 145 C 0.7360 -3.8734 -1.2901 0
M  V30 146 C 0.0706 -4.7453 -0.4221 0
M  V30 147 C -0.0109 -4.4418 0.9215 0
M  V30 148 N 0.5150 -3.3234 1.4290 0
M  V30 149 C 1.1881 -2.4913 0.6244 0
M  V30 150 C 1.3284 -2.7369 -0.7227 0
M  V30 151 H -0.4024 -5.6389 -0.7954 0
M  V30 152 H -0.5155 -5.0989 1.6238 0
M  V30 153 H 1.6153 -1.6107 1.1023 0
M  V30 154 H 1.9054 -2.0652 -1.3372 0
M  V30 END ATOM
M  V30 BEGIN BOND
M  V30 1 3 3 4
M  V30 2 1 4 5
M  V30 3 2 5 6
M  V30 4 1 6 7
M  V30 5 2 7 8
M  V30 6 1 8 9
M  V30 7 2 9 10
M  V30 8 1 10 11
M  V30 9 2 11 12
M  V30 10 1 12 13
M  V30 11 2 13 14
M  V30 12 1 14 5
M  V30 13 1 14 9
M  V30 14 1 6 15
M  V30 15 1 7 16
M  V30 16 1 8 17
M  V30 17 1 10 18
M  V30 18 1 11 19
M  V30 19 1 13 20
M  V30 20 2 21 22
M  V30 21 1 22 23
M  V30 22 2 23 24
M  V30 23 1 24 25
M  V30 24 2 25 26
M  V30 25 1 26 21
M  V30 26 1 22 27
M  V30 27 1 23 28
M  V30 28 1 24 29
M  V30 29 1 26 30
M  V30 30 2 31 32
M  V30 31 1 32 33
M  V30 32 2 33 34
M  V30 33 1 34 35
M  V30 34 2 35 36
M  V30 35 1 36 31
M  V30 36 1 32 37
M  V30 37 1 33 38
M  V30 38 1 35 39
M  V30 39 1 36 40
M  V30 40 1 3 21
M  V30 41 1 25 31
M  V30 42 3 41 42
M  V30 43 1 42 43
M  V30 44 2 43 44
M  V30 45 1 44 45
M  V30 46 2 45 46
M  V30 47 1 46 47
M  V30 48 2 47 48
M  V30 49 1 48 49
M  V30 50 2 49 50
M  V30 51 1 50 51
M  V30 52 2 51 52
M  V30 53 1 52 43
M  V30 54 1 52 47
M  V30 55 1 44 53
M  V30 56 1 45 54
M  V30 57 1 46 55
M  V30 58 1 48 56
M  V30 59 1 49 57
M  V30 60 1 51 58
M  V30 61 2 59 60
M  V30 62 1 60 61
M  V30 63 2 61 62
M  V30 64 1 62 63
M  V30 65 2 63 64
M  V30 66 1 64 59
M  V30 67 1 60 65
M  V30 68 1 61 66
M  V30 69 1 62 67
M  V30 70 1 64 68
M  V30 71 2 69 70
M  V30 72 1 70 71
M  V30 73 2 71 72
M  V30 74 1 72 73
M  V30 75 2 73 74
M  V30 76 1 74 69
M  V30 77 1 70 75
M  V30 78 1 71 76
M  V30 79 1 73 77
M  V30 80 1 74 78
M  V30 81 1 41 59
M  V30 82 1 63 69
M  V30 83 3 79 80
M  V30 84 1 80 81
M  V30 85 2 81 82
M  V30 86 1 82 83
M  V30 87 2 83 84
M  V30 88 1 84 85
M  V30 89 2 85 86
M  V30 90 1 86 87
M  V30 91 2 87 88
M  V30 92 1 88 89
M  V30 93 2 89 90
M  V30 94 1 90 81
M  V30 95 1 90 85
M  V30 96 1 82 91
M  V30 97 1 83 92
M  V30 98 1 84 93
M  V30 99 1 86 94
M  V30 100 1 87 95
M  V30 101 1 89 96
M  V30 102 2 97 98
M  V30 103 1 98 99
M  V30 104 2 99 100
M  V30 105 1 100 101
M  V30 106 2 101 102
M  V30 107 1 102 97
M  V30 108 1 98 103
M  V30 109 1 99 104
M  V30 110 1 100 105
M  V30 111 1 102 106
M  V30 112 2 107 108
M  V30 113 1 108 109
M  V30 114 2 109 110
M  V30 115 1 110 111
M  V30 116 2 111 112
M  V30 117 1 112 107
M  V30 118 1 108 113
M  V30 119 1 109 114
M  V30 120 1 111 115
M  V30 121 1 112 116
M  V30 122 1 79 97
M  V30 123 1 101 107
M  V30 124 3 117 118
M  V30 125 1 118 119
M  V30 126 2 119 120
M  V30 127 1 120 121
M  V30 128 2 121 122
M  V30 129 1 122 123
M  V30 130 2 123 124
M  V30 131 1 124 125
M  V30 132 2 125 126
M  V30 133 1 126 127
M  V30 134 2 127 128
M  V30 135 1 128 119
M  V30 136 1 128 123
M  V30 137 1 120 129
M  V30 138 1 121 130
M  V30 139 1 122 131
M  V30 140 1 124 132
M  V30 141 1 125 133
M  V30 142 1 127 134
M  V30 143 2 135 136
M  V30 144 1 136 137
M  V30 145 2 137 138
M  V30 146 1 138 139
M  V30 147 2 139 140
M  V30 148 1 140 135
M  V30 149 1 136 141
M  V30 150 1 137 142
M  V30 151 1 138 143
M  V30 152 1 140 144
M  V30 153 2 145 146
M  V30 154 1 146 147
M  V30 155 2 147 148
M  V30 156 1 148 149
M  V30 157 2 149 150
M  V30 158 1 150 145
M  V30 159 1 146 151
M  V30 160 1 147 152
M  V30 161 1 149 153
M  V30 162 1 150 154
M  V30 163 1 117 135
M  V30 164 1 139 145
M  V30 165 9 34 1
M  V30 166 9 72 1
M  V30 167 9 88 1
M  V30 168 9 126 1
M  V30 169 9 12 2
M  V30 170 9 50 2
M  V30 171 9 110 2
M  V30 172 9 148 2
M  V30 END BOND
M  V30 END CTAB
M  END

$$$$
