
     RDKit          3D

  0  0  0  0  0  0  0  0  0  0999 V3000
M  V30 BEGIN CTAB
M  V30 COUNTS 186 208 0 0 0
M  V30 BEGIN ATOM
M  V30 1 Pd -0.6821 5.6438 -3.9844 0 CHG=2
M  V30 2 Pd 0.7269 -5.6654 3.9462 0 CHG=2
M  V30 3 C -5.2087 -2.0927 0.5615 0
M  V30 4 C -5.0869 -3.0990 1.2220 0
M  V30 5 C -4.8967 -4.2912 1.9452 0
M  V30 6 C -5.8934 -5.2488 2.0222 0
M  V30 7 C -5.6804 -6.4591 2.6919 0
M  V30 8 C -4.4704 -6.7424 3.2721 0
M  V30 9 C -3.4295 -5.7910 3.2200 0
M  V30 10 C -2.1499 -6.0387 3.7529 0
M  V30 11 N -1.1779 -5.1525 3.7057 0
M  V30 12 C -1.4004 -3.9275 3.1657 0
M  V30 13 C -2.5965 -3.5970 2.5964 0
M  V30 14 C -3.6451 -4.5388 2.5770 0
M  V30 15 H -6.8470 -5.0599 1.5529 0
M  V30 16 H -6.4824 -7.1798 2.7355 0
M  V30 17 H -4.3043 -7.6851 3.7685 0
M  V30 18 H -1.9266 -6.9947 4.2200 0
M  V30 19 H -0.5640 -3.2331 3.2167 0
M  V30 20 H -2.7551 -2.6269 2.1539 0
M  V30 21 C -5.3286 -0.9234 -0.2133 0
M  V30 22 C -6.5324 -0.6223 -0.8609 0
M  V30 23 C -6.6427 0.5209 -1.6212 0
M  V30 24 C -5.5505 1.3872 -1.7537 0
M  V30 25 C -4.3456 1.0828 -1.1098 0
M  V30 26 C -4.2363 -0.0576 -0.3469 0
M  V30 27 H -7.3753 -1.2893 -0.7574 0
M  V30 28 H -7.5724 0.7563 -2.1174 0
M  V30 29 H -3.5100 1.7571 -1.2064 0
M  V30 30 H -3.3114 -0.2908 0.1563 0
M  V30 31 C -5.6811 2.5698 -2.5057 0
M  V30 32 C -5.7986 3.6015 -3.1279 0
M  V30 33 C -6.0183 4.8264 -3.7829 0
M  V30 34 C -7.3114 5.2345 -4.0607 0
M  V30 35 C -7.5655 6.4800 -4.6426 0
M  V30 36 C -6.5405 7.3443 -4.9388 0
M  V30 37 C -5.2095 6.9684 -4.6842 0
M  V30 38 C -4.1093 7.8150 -4.9497 0
M  V30 39 C -2.8408 7.3798 -4.6984 0
M  V30 40 N -2.5877 6.1350 -4.2238 0
M  V30 41 C -3.5884 5.3247 -3.9404 0
M  V30 42 C -4.9317 5.6873 -4.1246 0
M  V30 43 H -8.1361 4.5841 -3.8120 0
M  V30 44 H -8.5867 6.7648 -4.8452 0
M  V30 45 H -6.7419 8.3141 -5.3661 0
M  V30 46 H -4.2850 8.8016 -5.3477 0
M  V30 47 H -1.9735 8.0149 -4.8698 0
M  V30 48 H -3.3393 4.3370 -3.5585 0
M  V30 49 C -0.6559 -4.4126 -3.5402 0
M  V30 50 C -0.5865 -5.3970 -2.8403 0
M  V30 51 C -0.5515 -6.5142 -1.9842 0
M  V30 52 C -1.0033 -7.7532 -2.4037 0
M  V30 53 C -1.0251 -8.8465 -1.5299 0
M  V30 54 C -0.6183 -8.7177 -0.2267 0
M  V30 55 C -0.1416 -7.4733 0.2379 0
M  V30 56 C 0.2513 -7.2639 1.5736 0
M  V30 57 N 0.7019 -6.1057 2.0079 0
M  V30 58 C 0.8431 -5.0659 1.1477 0
M  V30 59 C 0.4623 -5.1554 -0.1606 0
M  V30 60 C -0.0776 -6.3620 -0.6502 0
M  V30 61 H -1.3522 -7.8743 -3.4180 0
M  V30 62 H -1.3819 -9.7978 -1.8932 0
M  V30 63 H -0.6571 -9.5576 0.4484 0
M  V30 64 H 0.1829 -8.0725 2.2975 0
M  V30 65 H 1.2809 -4.1632 1.5680 0
M  V30 66 H 0.5654 -4.3159 -0.8293 0
M  V30 67 C -0.7272 -3.2496 -4.3311 0
M  V30 68 C -0.7520 -3.3385 -5.7274 0
M  V30 69 C -0.7987 -2.1939 -6.4924 0
M  V30 70 C -0.8274 -0.9355 -5.8783 0
M  V30 71 C -0.8241 -0.8490 -4.4814 0
M  V30 72 C -0.7708 -1.9922 -3.7167 0
M  V30 73 H -0.7249 -4.3083 -6.2015 0
M  V30 74 H -0.8078 -2.2609 -7.5701 0
M  V30 75 H -0.8598 0.1203 -4.0109 0
M  V30 76 H -0.7645 -1.9304 -2.6400 0
M  V30 77 C -0.8241 0.2257 -6.6739 0
M  V30 78 C -0.7776 1.2181 -7.3656 0
M  V30 79 C -0.6519 2.3172 -8.2337 0
M  V30 80 C -0.5838 2.1060 -9.6002 0
M  V30 81 C -0.3914 3.1698 -10.4866 0
M  V30 82 C -0.2450 4.4553 -10.0268 0
M  V30 83 C -0.3134 4.7194 -8.6472 0
M  V30 84 C -0.1525 6.0153 -8.1064 0
M  V30 85 C -0.2452 6.2054 -6.7586 0
M  V30 86 N -0.5173 5.1873 -5.9054 0
M  V30 87 C -0.6534 3.9606 -6.3689 0
M  V30 88 C -0.5428 3.6499 -7.7330 0
M  V30 89 H -0.6721 1.1014 -9.9848 0
M  V30 90 H -0.3451 2.9671 -11.5456 0
M  V30 91 H -0.0757 5.2710 -10.7120 0
M  V30 92 H 0.0462 6.8434 -8.7677 0
M  V30 93 H -0.1041 7.1859 -6.3075 0
M  V30 94 H -0.8675 3.1747 -5.6476 0
M  V30 95 C 5.2231 2.2379 -0.3707 0
M  V30 96 C 5.0912 3.2520 -1.0172 0
M  V30 97 C 4.8866 4.4498 -1.7281 0
M  V30 98 C 5.8461 5.4469 -1.7438 0
M  V30 99 C 5.6133 6.6614 -2.3997 0
M  V30 100 C 4.4201 6.9072 -3.0292 0
M  V30 101 C 3.4190 5.9124 -3.0445 0
M  V30 102 C 2.1581 6.1163 -3.6368 0
M  V30 103 N 1.2250 5.1879 -3.6576 0
M  V30 104 C 1.4743 3.9623 -3.1315 0
M  V30 105 C 2.6532 3.6718 -2.5068 0
M  V30 106 C 3.6565 4.6577 -2.4144 0
M  V30 107 H 6.7843 5.2875 -1.2344 0
M  V30 108 H 6.3859 7.4147 -2.3928 0
M  V30 109 H 4.2374 7.8524 -3.5148 0
M  V30 110 H 1.9171 7.0722 -4.0958 0
M  V30 111 H 0.6772 3.2308 -3.2440 0
M  V30 112 H 2.8317 2.6983 -2.0792 0
M  V30 113 C 5.3479 1.0496 0.3747 0
M  V30 114 C 4.1993 0.3605 0.7826 0
M  V30 115 C 4.3113 -0.8107 1.4971 0
M  V30 116 C 5.5740 -1.3246 1.8139 0
M  V30 117 C 6.7225 -0.6271 1.4186 0
M  V30 118 C 6.6108 0.5484 0.7093 0
M  V30 119 H 3.2286 0.7585 0.5331 0
M  V30 120 H 3.4287 -1.3421 1.8141 0
M  V30 121 H 7.6966 -1.0200 1.6689 0
M  V30 122 H 7.4968 1.0831 0.4005 0
M  V30 123 C 5.7053 -2.5498 2.4941 0
M  V30 124 C 5.8290 -3.6231 3.0402 0
M  V30 125 C 6.0566 -4.8903 3.6059 0
M  V30 126 C 7.3547 -5.3294 3.8022 0
M  V30 127 C 7.6165 -6.6095 4.2994 0
M  V30 128 C 6.5932 -7.4777 4.5902 0
M  V30 129 C 5.2580 -7.0736 4.4129 0
M  V30 130 C 4.1593 -7.9232 4.6751 0
M  V30 131 C 2.8872 -7.4635 4.4962 0
M  V30 132 N 2.6306 -6.1938 4.0960 0
M  V30 133 C 3.6287 -5.3773 3.8216 0
M  V30 134 C 4.9740 -5.7596 3.9388 0
M  V30 135 H 8.1769 -4.6741 3.5585 0
M  V30 136 H 8.6414 -6.9168 4.4410 0
M  V30 137 H 6.7994 -8.4721 4.9537 0
M  V30 138 H 4.3390 -8.9316 5.0122 0
M  V30 139 H 2.0196 -8.0984 4.6672 0
M  V30 140 H 3.3758 -4.3690 3.5005 0
M  V30 141 C 0.4159 4.3733 3.5403 0
M  V30 142 C 0.3302 5.3629 2.8495 0
M  V30 143 C 0.2818 6.4878 2.0052 0
M  V30 144 C 0.6592 7.7402 2.4585 0
M  V30 145 C 0.6669 8.8455 1.6001 0
M  V30 146 C 0.3229 8.7168 0.2788 0
M  V30 147 C -0.0724 7.4580 -0.2219 0
M  V30 148 C -0.3908 7.2484 -1.5773 0
M  V30 149 N -0.7604 6.0753 -2.0461 0
M  V30 150 C -0.8889 5.0172 -1.2061 0
M  V30 151 C -0.5771 5.1075 0.1200 0
M  V30 152 C -0.1240 6.3329 0.6494 0
M  V30 153 H 0.9576 7.8630 3.4886 0
M  V30 154 H 0.9625 9.8073 1.9902 0
M  V30 155 H 0.3510 9.5672 -0.3836 0
M  V30 156 H -0.3293 8.0689 -2.2879 0
M  V30 157 H -1.2538 4.0983 -1.6610 0
M  V30 158 H -0.6656 4.2549 0.7738 0
M  V30 159 C 0.5232 3.2102 4.3261 0
M  V30 160 C 0.2388 1.9588 3.7660 0
M  V30 161 C 0.3500 0.8176 4.5274 0
M  V30 162 C 0.7442 0.9005 5.8679 0
M  V30 163 C 1.0297 2.1517 6.4280 0
M  V30 164 C 0.9220 3.2935 5.6653 0
M  V30 165 H -0.0718 1.8985 2.7350 0
M  V30 166 H 0.1216 -0.1465 4.1025 0
M  V30 167 H 1.3329 2.2154 7.4625 0
M  V30 168 H 1.1406 4.2584 6.0978 0
M  V30 169 C 0.8252 -0.2583 6.6630 0
M  V30 170 C 0.8664 -1.2530 7.3514 0
M  V30 171 C 0.8405 -2.3604 8.2179 0
M  V30 172 C 0.8600 -2.1613 9.5875 0
M  V30 173 C 0.7597 -3.2374 10.4744 0
M  V30 174 C 0.6196 -4.5231 10.0130 0
M  V30 175 C 0.6054 -4.7748 8.6295 0
M  V30 176 C 0.4485 -6.0707 8.0875 0
M  V30 177 C 0.4647 -6.2480 6.7347 0
M  V30 178 N 0.6587 -5.2165 5.8759 0
M  V30 179 C 0.7843 -3.9895 6.3417 0
M  V30 180 C 0.7431 -3.6921 7.7127 0
M  V30 181 H 0.9418 -1.1573 9.9748 0
M  V30 182 H 0.7786 -3.0443 11.5362 0
M  V30 183 H 0.5190 -5.3484 10.7003 0
M  V30 184 H 0.3144 -6.9094 8.7518 0
M  V30 185 H 0.3235 -7.2288 6.2844 0
M  V30 186 H 0.9344 -3.1924 5.6168 0
M  V30 END ATOM
M  V30 BEGIN BOND
M  V30 1 3 3 4
M  V30 2 1 4 5
M  V30 3 2 5 6
M  V30 4 1 6 7
M  V30 5 2 7 8
M  V30 6 1 8 9
M  V30 7 2 9 10
M  V30 8 1 10 11
M  V30 9 2 11 12
M  V30 10 1 12 13
M  V30 11 2 13 14
M  V30 12 1 14 5
M  V30 13 1 14 9
M  V30 14 1 6 15
M  V30 15 1 7 16
M  V30 16 1 8 17
M  V30 17 1 10 18
M  V30 18 1 12 19
M  V30 19 1 13 20
M  V30 20 2 21 22
M  V30 21 1 22 23
M  V30 22 2 23 24
M  V30 23 1 24 25
M  V30 24 2 25 26
M  V30 25 1 26 21
M  V30 26 1 22 27
M  V30 27 1 23 28
M  V30 28 1 25 29
M  V30 29 1 26 30
M  V30 30 3 31 32
M  V30 31 1 32 33
M  V30 32 2 33 34
M  V30 33 1 34 35
M  V30 34 2 35 36
M  V30 35 1 36 37
M  V30 36 2 37 38
M  V30 37 1 38 39
M  V30 38 2 39 40
M  V30 39 1 40 41
M  V30 40 2 41 42
M  V30 41 1 42 33
M  V30 42 1 42 37
M  V30 43 1 34 43
M  V30 44 1 35 44
M  V30 45 1 36 45
M  V30 46 1 38 46
M  V30 47 1 39 47
M  V30 48 1 41 48
M  V30 49 1 3 21
M  V30 50 1 24 31
M  V30 51 3 49 50
M  V30 52 1 50 51
M  V30 53 2 51 52
M  V30 54 1 52 53
M  V30 55 2 53 54
M  V30 56 1 54 55
M  V30 57 2 55 56
M  V30 58 1 56 57
M  V30 59 2 57 58
M  V30 60 1 58 59
M  V30 61 2 59 60
M  V30 62 1 60 51
M  V30 63 1 60 55
M  V30 64 1 52 61
M  V30 65 1 53 62
M  V30 66 1 54 63
M  V30 67 1 56 64
M  V30 68 1 58 65
M  V30 69 1 59 66
M  V30 70 2 67 68
M  V30 71 1 68 69
M  V30 72 2 69 70
M  V30 73 1 70 71
M  V30 74 2 71 72
M  V30 75 1 72 67
M  V30 76 1 68 73
M  V30 77 1 69 74
M  V30 78 1 71 75
M  V30 79 1 72 76
M  V30 80 3 77 78
M  V30 81 1 78 79
M  V30 82 2 79 80
M  V30 83 1 80 81
M  V30 84 2 81 82
M  V30 85 1 82 83
M  V30 86 2 83 84
M  V30 87 1 84 85
M  V30 88 2 85 86
M  V30 89 1 86 87
M  V30 90 2 87 88
M  V30 91 1 88 79
M  V30 92 1 88 83
M  V30 93 1 80 89
M  V30 94 1 81 90
M  V30 95 1 82 91
M  V30 96 1 84 92
M  V30 97 1 85 93
M  V30 98 1 87 94
M  V30 99 1 49 67
M  V30 100 1 70 77
M  V30 101 3 95 96
M  V30 102 1 96 97
M  V30 103 2 97 98
M  V30 104 1 98 99
M  V30 105 2 99 100
M  V30 106 1 100 101
M  V30 107 2 101 102
M  V30 108 1 102 103
M  V30 109 2 103 104
M  V30 110 1 104 105
M  V30 111 2 105 106
M  V30 112 1 106 97
M  V30 113 1 106 101
M  V30 114 1 98 107
M  V30 115 1 99 108
M  V30 116 1 100 109
M  V30 117 1 102 110
M  V30 118 1 104 111
M  V30 119 1 105 112
M  V30 120 2 113 114
M  V30 121 1 114 115
M  V30 122 2 115 116
M  V30 123 1 116 117
M  V30 124 2 117 118
M  V30 125 1 118 113
M  V30 126 1 114 119
M  V30 127 1 115 120
M  V30 128 1 117 121
M  V30 129 1 118 122
M  V30 130 3 123 124
M  V30 131 1 124 125
M  V30 132 2 125 126
M  V30 133 1 126 127
M  V30 134 2 127 128
M  V30 135 1 128 129
M  V30 136 2 129 130
M  V30 137 1 130 131
M  V30 138 2 131 132
M  V30 139 1 132 133
M  V30 140 2 133 134
M  V30 141 1 134 125
M  V30 142 1 134 129
M  V30 143 1 126 135
M  V30 144 1 127 136
M  V30 145 1 128 137
M  V30 146 1 130 138
M  V30 147 1 131 139
M  V30 148 1 133 140
M  V30 149 1 95 113
M  V30 150 1 116 123
M  V30 151 3 141 142
M  V30 152 1 142 143
M  V30 153 2 143 144
M  V30 154 1 144 145
M  V30 155 2 145 146
M  V30 156 1 146 147
M  V30 157 2 147 148
M  V30 158 1 148 149
M  V30 159 2 149 150
M  V30 160 1 150 151
M  V30 161 2 151 152
M  V30 162 1 152 143
M  V30 163 1 152 147
M  V30 164 1 144 153
M  V30 165 1 145 154
M  V30 166 1 146 155
M  V30 167 1 148 156
M  V30 168 1 150 157
M  V30 169 1 151 158
M  V30 170 2 159 160
M  V30 171 1 160 161
M  V30 172 2 161 162
M  V30 173 1 162 163
M  V30 174 2 163 164
M  V30 175 1 164 159
M  V30 176 1 160 165
M  V30 177 1 161 166
M  V30 178 1 163 167
M  V30 179 1 164 168
M  V30 180 3 169 170
M  V30 181 1 170 171
M  V30 182 2 171 172
M  V30 183 1 172 173
M  V30 184 2 173 174
M  V30 185 1 174 175
M  V30 186 2 175 176
M  V30 187 1 176 177
M  V30 188 2 177 178
M  V30 189 1 178 179
M  V30 190 2 179 180
M  V30 191 1 180 171
M  V30 192 1 180 175
M  V30 193 1 172 181
M  V30 194 1 173 182
M  V30 195 1 174 183
M  V30 196 1 176 184
M  V30 197 1 177 185
M  V30 198 1 179 186
M  V30 199 1 141 159
M  V30 200 1 162 169
M  V30 201 9 40 1
M  V30 202 9 86 1
M  V30 203 9 103 1
M  V30 204 9 149 1
M  V30 205 9 11 2
M  V30 206 9 57 2
M  V30 207 9 132 2
M  V30 208 9 178 2
M  V30 END BOND
M  V30 END CTAB
M  END

$$$$
