
     RDKit          3D

  0  0  0  0  0  0  0  0  0  0999 V3000
M  V30 BEGIN CTAB
M  V30 COUNTS 186 208 0 0 0
M  V30 BEGIN ATOM
M  V30 1 Pd 5.6758 0.6502 3.9441 0 CHG=2
M  V30 2 Pd -5.6835 -0.7088 -3.9234 0 CHG=2
M  V30 3 C 1.5842 1.5319 -5.1932 0
M  V30 4 C 0.6072 1.3808 -5.8905 0
M  V30 5 C -0.5343 1.1399 -6.6777 0
M  V30 6 C -0.4562 1.1009 -8.0592 0
M  V30 7 C -1.5808 0.8022 -8.8369 0
M  V30 8 C -2.7884 0.5165 -8.2528 0
M  V30 9 C -2.9113 0.5499 -6.8474 0
M  V30 10 C -4.1087 0.2200 -6.1840 0
M  V30 11 N -4.2255 0.2510 -4.8734 0
M  V30 12 C -3.1802 0.6532 -4.1070 0
M  V30 13 C -1.9672 0.9668 -4.6494 0
M  V30 14 C -1.7855 0.8919 -6.0453 0
M  V30 15 H 0.4887 1.2985 -8.5423 0
M  V30 16 H -1.4831 0.7858 -9.9115 0
M  V30 17 H -3.6467 0.2660 -8.8555 0
M  V30 18 H -4.9842 -0.0838 -6.7525 0
M  V30 19 H -3.3752 0.7062 -3.0377 0
M  V30 20 H -1.1387 1.2670 -4.0285 0
M  V30 21 C 2.7126 1.6927 -4.3668 0
M  V30 22 C 3.9719 1.9383 -4.9263 0
M  V30 23 C 5.0732 2.0905 -4.1132 0
M  V30 24 C 4.9405 1.9973 -2.7223 0
M  V30 25 C 3.6817 1.7468 -2.1639 0
M  V30 26 C 2.5804 1.5984 -2.9761 0
M  V30 27 H 4.0741 2.0120 -5.9987 0
M  V30 28 H 6.0443 2.2845 -4.5437 0
M  V30 29 H 3.5819 1.6853 -1.0922 0
M  V30 30 H 1.6080 1.4126 -2.5482 0
M  V30 31 C 6.0647 2.1863 -1.8967 0
M  V30 32 C 7.0237 2.3765 -1.1829 0
M  V30 33 C 8.1481 2.6967 -0.4014 0
M  V30 34 C 9.2448 3.3011 -0.9910 0
M  V30 35 C 10.3463 3.6993 -0.2276 0
M  V30 36 C 10.3651 3.5198 1.1336 0
M  V30 37 C 9.2778 2.9002 1.7751 0
M  V30 38 C 9.2254 2.6990 3.1731 0
M  V30 39 C 8.1490 2.0717 3.7295 0
M  V30 40 N 7.1238 1.5990 2.9782 0
M  V30 41 C 7.1243 1.7889 1.6735 0
M  V30 42 C 8.1631 2.4560 1.0059 0
M  V30 43 H 9.2423 3.4780 -2.0558 0
M  V30 44 H 11.1840 4.1676 -0.7215 0
M  V30 45 H 11.2066 3.8495 1.7225 0
M  V30 46 H 10.0394 3.0473 3.7885 0
M  V30 47 H 8.0668 1.9217 4.8045 0
M  V30 48 H 6.2802 1.3962 1.1107 0
M  V30 49 C 0.9003 -4.6569 -3.1523 0
M  V30 50 C -0.0655 -4.7449 -3.8756 0
M  V30 51 C -1.1806 -4.7820 -4.7343 0
M  V30 52 C -1.1822 -5.5676 -5.8736 0
M  V30 53 C -2.2674 -5.5539 -6.7575 0
M  V30 54 C -3.3526 -4.7467 -6.5315 0
M  V30 55 C -3.3943 -3.9373 -5.3761 0
M  V30 56 C -4.4589 -3.0562 -5.1069 0
M  V30 57 N -4.5028 -2.3047 -4.0269 0
M  V30 58 C -3.5174 -2.3915 -3.0983 0
M  V30 59 C -2.4257 -3.1919 -3.2779 0
M  V30 60 C -2.3145 -3.9698 -4.4483 0
M  V30 61 H -0.3287 -6.1933 -6.0869 0
M  V30 62 H -2.2341 -6.1817 -7.6345 0
M  V30 63 H -4.1768 -4.7236 -7.2265 0
M  V30 64 H -5.2870 -2.9683 -5.8063 0
M  V30 65 H -3.6574 -1.7867 -2.2052 0
M  V30 66 H -1.6421 -3.2391 -2.5388 0
M  V30 67 C 2.0101 -4.5324 -2.2943 0
M  V30 68 C 2.9653 -5.5517 -2.2133 0
M  V30 69 C 4.0351 -5.4302 -1.3540 0
M  V30 70 C 4.1764 -4.2844 -0.5610 0
M  V30 71 C 3.2317 -3.2565 -0.6589 0
M  V30 72 C 2.1591 -3.3804 -1.5125 0
M  V30 73 H 2.8542 -6.4375 -2.8209 0
M  V30 74 H 4.7675 -6.2205 -1.2833 0
M  V30 75 H 3.3499 -2.3697 -0.0573 0
M  V30 76 H 1.4266 -2.5925 -1.5887 0
M  V30 77 C 5.2471 -4.1972 0.3486 0
M  V30 78 C 6.1461 -4.1503 1.1580 0
M  V30 79 C 7.1720 -4.2028 2.1183 0
M  V30 80 C 8.0004 -5.3105 2.1752 0
M  V30 81 C 8.9864 -5.4251 3.1597 0
M  V30 82 C 9.1505 -4.4501 4.1125 0
M  V30 83 C 8.3364 -3.3035 4.0910 0
M  V30 84 C 8.4401 -2.2722 5.0519 0
M  V30 85 C 7.6292 -1.1785 4.9651 0
M  V30 86 N 6.7313 -1.0266 3.9605 0
M  V30 87 C 6.5900 -1.9759 3.0567 0
M  V30 88 C 7.3490 -3.1563 3.0733 0
M  V30 89 H 7.8754 -6.1018 1.4519 0
M  V30 90 H 9.6147 -6.3024 3.1718 0
M  V30 91 H 9.8982 -4.5514 4.8833 0
M  V30 92 H 9.1602 -2.3629 5.8493 0
M  V30 93 H 7.6675 -0.3774 5.7009 0
M  V30 94 H 5.8551 -1.8128 2.2712 0
M  V30 95 C -1.6620 -1.3231 5.2833 0
M  V30 96 C -0.6857 -1.1534 5.9774 0
M  V30 97 C 0.4576 -0.8943 6.7570 0
M  V30 98 C 0.3748 -0.7739 8.1331 0
M  V30 99 C 1.5026 -0.4544 8.8982 0
M  V30 100 C 2.7188 -0.2316 8.3053 0
M  V30 101 C 2.8477 -0.3542 6.9051 0
M  V30 102 C 4.0570 -0.0987 6.2309 0
M  V30 103 N 4.1812 -0.2182 4.9258 0
M  V30 104 C 3.1304 -0.6423 4.1794 0
M  V30 105 C 1.9058 -0.8871 4.7315 0
M  V30 106 C 1.7176 -0.7163 6.1180 0
M  V30 107 H -0.5767 -0.9200 8.6214 0
M  V30 108 H 1.4002 -0.3713 9.9692 0
M  V30 109 H 3.5799 0.0352 8.8968 0
M  V30 110 H 4.9366 0.2185 6.7859 0
M  V30 111 H 3.3303 -0.7766 3.1187 0
M  V30 112 H 1.0752 -1.2085 4.1238 0
M  V30 113 C -2.7808 -1.5174 4.4504 0
M  V30 114 C -2.7317 -1.1070 3.1126 0
M  V30 115 C -3.8142 -1.3077 2.2863 0
M  V30 116 C -4.9681 -1.9304 2.7758 0
M  V30 117 C -5.0223 -2.3272 4.1180 0
M  V30 118 C -3.9418 -2.1205 4.9469 0
M  V30 119 H -1.8391 -0.6309 2.7391 0
M  V30 120 H -3.7798 -0.9909 1.2566 0
M  V30 121 H -5.9151 -2.8014 4.4974 0
M  V30 122 H -3.9824 -2.4312 5.9804 0
M  V30 123 C -6.0611 -2.1939 1.9291 0
M  V30 124 C -6.9885 -2.4635 1.1992 0
M  V30 125 C -8.0734 -2.8734 0.4038 0
M  V30 126 C -9.1293 -3.5547 0.9845 0
M  V30 127 C -10.1909 -4.0350 0.2120 0
M  V30 128 C -10.2086 -3.8622 -1.1501 0
M  V30 129 C -9.1608 -3.1707 -1.7837 0
M  V30 130 C -9.1082 -2.9742 -3.1824 0
M  V30 131 C -8.0698 -2.2808 -3.7324 0
M  V30 132 N -7.0839 -1.7404 -2.9747 0
M  V30 133 C -7.0865 -1.9194 -1.6685 0
M  V30 134 C -8.0881 -2.6454 -1.0056 0
M  V30 135 H -9.1267 -3.7242 2.0504 0
M  V30 136 H -10.9978 -4.5603 0.6997 0
M  V30 137 H -11.0188 -4.2526 -1.7456 0
M  V30 138 H -9.8913 -3.3792 -3.8033 0
M  V30 139 H -7.9870 -2.1309 -4.8074 0
M  V30 140 H -6.2739 -1.4708 -1.1009 0
M  V30 141 C -0.7838 4.7413 2.9561 0
M  V30 142 C 0.1870 4.8458 3.6705 0
M  V30 143 C 1.3046 4.9015 4.5239 0
M  V30 144 C 1.3298 5.7512 5.6165 0
M  V30 145 C 2.4175 5.7612 6.4972 0
M  V30 146 C 3.4804 4.9136 6.3173 0
M  V30 147 C 3.4957 4.0348 5.2132 0
M  V30 148 C 4.5325 3.1068 4.9985 0
M  V30 149 N 4.5489 2.2869 3.9689 0
M  V30 150 C 3.5624 2.3438 3.0387 0
M  V30 151 C 2.4971 3.1876 3.1683 0
M  V30 152 C 2.4147 4.0423 4.2863 0
M  V30 153 H 0.4942 6.4113 5.7937 0
M  V30 154 H 2.4041 6.4408 7.3354 0
M  V30 155 H 4.3062 4.9100 7.0107 0
M  V30 156 H 5.3603 3.0380 5.6999 0
M  V30 157 H 3.6789 1.6733 2.1893 0
M  V30 158 H 1.7100 3.2106 2.4320 0
M  V30 159 C -1.9102 4.5973 2.1239 0
M  V30 160 C -1.9118 3.6319 1.1097 0
M  V30 161 C -3.0135 3.4812 0.2985 0
M  V30 162 C -4.1382 4.2946 0.4792 0
M  V30 163 C -4.1372 5.2593 1.4941 0
M  V30 164 C -3.0363 5.4079 2.3083 0
M  V30 165 H -1.0411 3.0115 0.9680 0
M  V30 166 H -3.0142 2.7462 -0.4901 0
M  V30 167 H -5.0048 5.8874 1.6326 0
M  V30 168 H -3.0352 6.1531 3.0897 0
M  V30 169 C -5.2545 4.1711 -0.3694 0
M  V30 170 C -6.2010 4.0817 -1.1185 0
M  V30 171 C -7.2851 4.0843 -2.0143 0
M  V30 172 C -8.1699 5.1487 -2.0186 0
M  V30 173 C -9.2130 5.2160 -2.9471 0
M  V30 174 C -9.3796 4.2370 -3.8954 0
M  V30 175 C -8.5112 3.1311 -3.9228 0
M  V30 176 C -8.6164 2.0973 -4.8808 0
M  V30 177 C -7.7536 1.0410 -4.8381 0
M  V30 178 N -6.8022 0.9271 -3.8783 0
M  V30 179 C -6.6566 1.8829 -2.9819 0
M  V30 180 C -7.4651 3.0300 -2.9599 0
M  V30 181 H -8.0434 5.9444 -1.3005 0
M  V30 182 H -9.8839 6.0611 -2.9205 0
M  V30 183 H -10.1714 4.3040 -4.6249 0
M  V30 184 H -9.3792 2.1555 -5.6406 0
M  V30 185 H -7.7925 0.2403 -5.5743 0
M  V30 186 H -5.8785 1.7518 -2.2331 0
M  V30 END ATOM
M  V30 BEGIN BOND
M  V30 1 3 3 4
M  V30 2 1 4 5
M  V30 3 2 5 6
M  V30 4 1 6 7
M  V30 5 2 7 8
M  V30 6 1 8 9
M  V30 7 2 9 10
M  V30 8 1 10 11
M  V30 9 2 11 12
M  V30 10 1 12 13
M  V30 11 2 13 14
M  V30 12 1 14 5
M  V30 13 1 14 9
M  V30 14 1 6 15
M  V30 15 1 7 16
M  V30 16 1 8 17
M  V30 17 1 10 18
M  V30 18 1 12 19
M  V30 19 1 13 20
M  V30 20 2 21 22
M  V30 21 1 22 23
M  V30 22 2 23 24
M  V30 23 1 24 25
M  V30 24 2 25 26
M  V30 25 1 26 21
M  V30 26 1 22 27
M  V30 27 1 23 28
M  V30 28 1 25 29
M  V30 29 1 26 30
M  V30 30 3 31 32
M  V30 31 1 32 33
M  V30 32 2 33 34
M  V30 33 1 34 35
M  V30 34 2 35 36
M  V30 35 1 36 37
M  V30 36 2 37 38
M  V30 37 1 38 39
M  V30 38 2 39 40
M  V30 39 1 40 41
M  V30 40 2 41 42
M  V30 41 1 42 33
M  V30 42 1 42 37
M  V30 43 1 34 43
M  V30 44 1 35 44
M  V30 45 1 36 45
M  V30 46 1 38 46
M  V30 47 1 39 47
M  V30 48 1 41 48
M  V30 49 1 3 21
M  V30 50 1 24 31
M  V30 51 3 49 50
M  V30 52 1 50 51
M  V30 53 2 51 52
M  V30 54 1 52 53
M  V30 55 2 53 54
M  V30 56 1 54 55
M  V30 57 2 55 56
M  V30 58 1 56 57
M  V30 59 2 57 58
M  V30 60 1 58 59
M  V30 61 2 59 60
M  V30 62 1 60 51
M  V30 63 1 60 55
M  V30 64 1 52 61
M  V30 65 1 53 62
M  V30 66 1 54 63
M  V30 67 1 56 64
M  V30 68 1 58 65
M  V30 69 1 59 66
M  V30 70 2 67 68
M  V30 71 1 68 69
M  V30 72 2 69 70
M  V30 73 1 70 71
M  V30 74 2 71 72
M  V30 75 1 72 67
M  V30 76 1 68 73
M  V30 77 1 69 74
M  V30 78 1 71 75
M  V30 79 1 72 76
M  V30 80 3 77 78
M  V30 81 1 78 79
M  V30 82 2 79 80
M  V30 83 1 80 81
M  V30 84 2 81 82
M  V30 85 1 82 83
M  V30 86 2 83 84
M  V30 87 1 84 85
M  V30 88 2 85 86
M  V30 89 1 86 87
M  V30 90 2 87 88
M  V30 91 1 88 79
M  V30 92 1 88 83
M  V30 93 1 80 89
M  V30 94 1 81 90
M  V30 95 1 82 91
M  V30 96 1 84 92
M  V30 97 1 85 93
M  V30 98 1 87 94
M  V30 99 1 49 67
M  V30 100 1 70 77
M  V30 101 3 95 96
M  V30 102 1 96 97
M  V30 103 2 97 98
M  V30 104 1 98 99
M  V30 105 2 99 100
M  V30 106 1 100 101
M  V30 107 2 101 102
M  V30 108 1 102 103
M  V30 109 2 103 104
M  V30 110 1 104 105
M  V30 111 2 105 106
M  V30 112 1 106 97
M  V30 113 1 106 101
M  V30 114 1 98 107
M  V30 115 1 99 108
M  V30 116 1 100 109
M  V30 117 1 102 110
M  V30 118 1 104 111
M  V30 119 1 105 112
M  V30 120 2 113 114
M  V30 121 1 114 115
M  V30 122 2 115 116
M  V30 123 1 116 117
M  V30 124 2 117 118
M  V30 125 1 118 113
M  V30 126 1 114 119
M  V30 127 1 115 120
M  V30 128 1 117 121
M  V30 129 1 118 122
M  V30 130 3 123 124
M  V30 131 1 124 125
M  V30 132 2 125 126
M  V30 133 1 126 127
M  V30 134 2 127 128
M  V30 135 1 128 129
M  V30 136 2 129 130
M  V30 137 1 130 131
M  V30 138 2 131 132
M  V30 139 1 132 133
M  V30 140 2 133 134
M  V30 141 1 134 125
M  V30 142 1 134 129
M  V30 143 1 126 135
M  V30 144 1 127 136
M  V30 145 1 128 137
M  V30 146 1 130 138
M  V30 147 1 131 139
M  V30 148 1 133 140
M  V30 149 1 95 113
M  V30 150 1 116 123
M  V30 151 3 141 142
M  V30 152 1 142 143
M  V30 153 2 143 144
M  V30 154 1 144 145
M  V30 155 2 145 146
M  V30 156 1 146 147
M  V30 157 2 147 148
M  V30 158 1 148 149
M  V30 159 2 149 150
M  V30 160 1 150 151
M  V30 161 2 151 152
M  V30 162 1 152 143
M  V30 163 1 152 147
M  V30 164 1 144 153
M  V30 165 1 145 154
M  V30 166 1 146 155
M  V30 167 1 148 156
M  V30 168 1 150 157
M  V30 169 1 151 158
M  V30 170 2 159 160
M  V30 171 1 160 161
M  V30 172 2 161 162
M  V30 173 1 162 163
M  V30 174 2 163 164
M  V30 175 1 164 159
M  V30 176 1 160 165
M  V30 177 1 161 166
M  V30 178 1 163 167
M  V30 179 1 164 168
M  V30 180 3 169 170
M  V30 181 1 170 171
M  V30 182 2 171 172
M  V30 183 1 172 173
M  V30 184 2 173 174
M  V30 185 1 174 175
M  V30 186 2 175 176
M  V30 187 1 176 177
M  V30 188 2 177 178
M  V30 189 1 178 179
M  V30 190 2 179 180
M  V30 191 1 180 171
M  V30 192 1 180 175
M  V30 193 1 172 181
M  V30 194 1 173 182
M  V30 195 1 174 183
M  V30 196 1 176 184
M  V30 197 1 177 185
M  V30 198 1 179 186
M  V30 199 1 141 159
M  V30 200 1 162 169
M  V30 201 9 40 1
M  V30 202 9 86 1
M  V30 203 9 103 1
M  V30 204 9 149 1
M  V30 205 9 11 2
M  V30 206 9 57 2
M  V30 207 9 132 2
M  V30 208 9 178 2
M  V30 END BOND
M  V30 END CTAB
M  END

$$$$
