
     RDKit          3D

  0  0  0  0  0  0  0  0  0  0999 V3000
M  V30 BEGIN CTAB
M  V30 COUNTS 186 208 0 0 0
M  V30 BEGIN ATOM
M  V30 1 Pd 6.5457 2.6720 1.7297 0 CHG=2
M  V30 2 Pd -6.0565 -2.3071 -1.2985 0 CHG=2
M  V30 3 C -1.4048 -2.6300 4.8422 0
M  V30 4 C -2.5179 -3.0355 4.5969 0
M  V30 5 C -3.8306 -3.4423 4.2938 0
M  V30 6 C -4.6888 -3.8883 5.2842 0
M  V30 7 C -6.0120 -4.2356 4.9892 0
M  V30 8 C -6.5050 -4.1226 3.7144 0
M  V30 9 C -5.6614 -3.6761 2.6749 0
M  V30 10 C -6.1177 -3.4922 1.3556 0
M  V30 11 N -5.3324 -3.0763 0.3847 0
M  V30 12 C -4.0165 -2.8478 0.6253 0
M  V30 13 C -3.4805 -2.9687 1.8751 0
M  V30 14 C -4.3015 -3.3578 2.9529 0
M  V30 15 H -4.3319 -3.9631 6.3003 0
M  V30 16 H -6.6505 -4.5839 5.7864 0
M  V30 17 H -7.5313 -4.3711 3.4961 0
M  V30 18 H -7.1573 -3.6862 1.1034 0
M  V30 19 H -3.4236 -2.5621 -0.2414 0
M  V30 20 H -2.4375 -2.7663 2.0572 0
M  V30 21 C -0.1121 -2.1419 5.1119 0
M  V30 22 C 0.4095 -2.1953 6.4097 0
M  V30 23 C 1.6732 -1.7123 6.6687 0
M  V30 24 C 2.4425 -1.1620 5.6361 0
M  V30 25 C 1.9183 -1.1045 4.3396 0
M  V30 26 C 0.6570 -1.5905 4.0799 0
M  V30 27 H -0.1830 -2.6212 7.2057 0
M  V30 28 H 2.0781 -1.7573 7.6687 0
M  V30 29 H 2.5173 -0.6889 3.5455 0
M  V30 30 H 0.2534 -1.5542 3.0804 0
M  V30 31 C 3.7453 -0.7004 5.9023 0
M  V30 32 C 4.8762 -0.3287 6.1219 0
M  V30 33 C 6.2118 0.0010 6.4135 0
M  V30 34 C 6.7821 -0.4283 7.5994 0
M  V30 35 C 8.1284 -0.1809 7.8836 0
M  V30 36 C 8.9307 0.4791 6.9858 0
M  V30 37 C 8.3925 0.9434 5.7724 0
M  V30 38 C 9.1651 1.6152 4.7979 0
M  V30 39 C 8.5752 2.0585 3.6503 0
M  V30 40 N 7.2484 1.9037 3.4167 0
M  V30 41 C 6.4989 1.2607 4.2903 0
M  V30 42 C 7.0130 0.7308 5.4839 0
M  V30 43 H 6.1788 -0.9733 8.3094 0
M  V30 44 H 8.5391 -0.5305 8.8185 0
M  V30 45 H 9.9748 0.6476 7.1982 0
M  V30 46 H 10.2181 1.7689 4.9715 0
M  V30 47 H 9.1459 2.5587 2.8699 0
M  V30 48 H 5.4407 1.1566 4.0605 0
M  V30 49 C -3.3908 3.3871 3.1734 0
M  V30 50 C -4.4844 2.9196 2.9517 0
M  V30 51 C -5.7322 2.3141 2.7094 0
M  V30 52 C -6.8307 2.5936 3.5034 0
M  V30 53 C -8.0529 1.9427 3.2983 0
M  V30 54 C -8.1926 0.9944 2.3177 0
M  V30 55 C -7.0989 0.6873 1.4802 0
M  V30 56 C -7.1640 -0.3047 0.4832 0
M  V30 57 N -6.1471 -0.5888 -0.3031 0
M  V30 58 C -4.9910 0.1139 -0.1993 0
M  V30 59 C -4.8144 1.0750 0.7545 0
M  V30 60 C -5.8606 1.3691 1.6522 0
M  V30 61 H -6.7394 3.3183 4.2981 0
M  V30 62 H -8.8882 2.1882 3.9356 0
M  V30 63 H -9.1300 0.4804 2.1775 0
M  V30 64 H -8.0765 -0.8788 0.3409 0
M  V30 65 H -4.2209 -0.1366 -0.9255 0
M  V30 66 H -3.8845 1.6146 0.8358 0
M  V30 67 C -2.1060 3.9133 3.4094 0
M  V30 68 C -1.9469 5.1232 4.0944 0
M  V30 69 C -0.6871 5.6409 4.2999 0
M  V30 70 C 0.4418 4.9577 3.8303 0
M  V30 71 C 0.2822 3.7372 3.1642 0
M  V30 72 C -0.9768 3.2228 2.9527 0
M  V30 73 H -2.8172 5.6528 4.4523 0
M  V30 74 H -0.5636 6.5793 4.8196 0
M  V30 75 H 1.1534 3.2065 2.8154 0
M  V30 76 H -1.1049 2.2844 2.4368 0
M  V30 77 C 1.7185 5.5243 4.0039 0
M  V30 78 C 2.8076 6.0400 4.1196 0
M  V30 79 C 4.0247 6.7356 4.2307 0
M  V30 80 C 4.0499 7.9778 4.8414 0
M  V30 81 C 5.2293 8.7254 4.9088 0
M  V30 82 C 6.3951 8.2581 4.3541 0
M  V30 83 C 6.4195 6.9987 3.7288 0
M  V30 84 C 7.5800 6.4669 3.1221 0
M  V30 85 C 7.5396 5.2313 2.5450 0
M  V30 86 N 6.4183 4.4690 2.5547 0
M  V30 87 C 5.3098 4.9382 3.0924 0
M  V30 88 C 5.2331 6.2096 3.6816 0
M  V30 89 H 3.1408 8.3776 5.2640 0
M  V30 90 H 5.2113 9.6892 5.3942 0
M  V30 91 H 7.2984 8.8467 4.3894 0
M  V30 92 H 8.4884 7.0477 3.1187 0
M  V30 93 H 8.4085 4.8019 2.0496 0
M  V30 94 H 4.4337 4.2933 3.0743 0
M  V30 95 C 2.0203 2.7633 -4.5187 0
M  V30 96 C 3.1396 3.1510 -4.2723 0
M  V30 97 C 4.4570 3.5395 -3.9634 0
M  V30 98 C 5.3467 3.9100 -4.9565 0
M  V30 99 C 6.6735 4.2352 -4.6514 0
M  V30 100 C 7.1367 4.1772 -3.3620 0
M  V30 101 C 6.2587 3.8133 -2.3187 0
M  V30 102 C 6.6807 3.6947 -0.9807 0
M  V30 103 N 5.8622 3.3613 -0.0050 0
M  V30 104 C 4.5456 3.1579 -0.2624 0
M  V30 105 C 4.0408 3.2180 -1.5296 0
M  V30 106 C 4.8965 3.5170 -2.6092 0
M  V30 107 H 5.0131 3.9394 -5.9827 0
M  V30 108 H 7.3379 4.5220 -5.4519 0
M  V30 109 H 8.1652 4.4081 -3.1348 0
M  V30 110 H 7.7204 3.8731 -0.7169 0
M  V30 111 H 3.9234 2.9486 0.6049 0
M  V30 112 H 2.9952 3.0385 -1.7216 0
M  V30 113 C 0.7137 2.3052 -4.7758 0
M  V30 114 C 0.0752 1.4693 -3.8516 0
M  V30 115 C -1.2080 1.0300 -4.0861 0
M  V30 116 C -1.8860 1.4221 -5.2461 0
M  V30 117 C -1.2414 2.2461 -6.1774 0
M  V30 118 C 0.0451 2.6806 -5.9463 0
M  V30 119 H 0.6003 1.1727 -2.9576 0
M  V30 120 H -1.7011 0.3848 -3.3773 0
M  V30 121 H -1.7619 2.5431 -7.0756 0
M  V30 122 H 0.5397 3.3200 -6.6625 0
M  V30 123 C -3.2180 1.0277 -5.4725 0
M  V30 124 C -4.3770 0.7297 -5.6552 0
M  V30 125 C -5.7392 0.4859 -5.9051 0
M  V30 126 C -6.3261 0.9917 -7.0524 0
M  V30 127 C -7.6922 0.8253 -7.2981 0
M  V30 128 C -8.4976 0.1712 -6.3987 0
M  V30 129 C -7.9449 -0.3653 -5.2222 0
M  V30 130 C -8.7199 -1.0332 -4.2470 0
M  V30 131 C -8.1183 -1.5437 -3.1339 0
M  V30 132 N -6.7798 -1.4579 -2.9360 0
M  V30 133 C -6.0256 -0.8246 -3.8125 0
M  V30 134 C -6.5474 -0.2334 -4.9735 0
M  V30 135 H -5.7187 1.5306 -7.7633 0
M  V30 136 H -8.1147 1.2321 -8.2042 0
M  V30 137 H -9.5551 0.0631 -6.5815 0
M  V30 138 H -9.7841 -1.1297 -4.3922 0
M  V30 139 H -8.6888 -2.0437 -2.3531 0
M  V30 140 H -4.9574 -0.7774 -3.6111 0
M  V30 141 C 3.8828 -3.1914 -2.5093 0
M  V30 142 C 4.9814 -2.7403 -2.2785 0
M  V30 143 C 6.2360 -2.1524 -2.0314 0
M  V30 144 C 7.3488 -2.4987 -2.7785 0
M  V30 145 C 8.5813 -1.8693 -2.5703 0
M  V30 146 C 8.7183 -0.8749 -1.6359 0
M  V30 147 C 7.6092 -0.4954 -0.8501 0
M  V30 148 C 7.6705 0.5497 0.0913 0
M  V30 149 N 6.6375 0.9046 0.8257 0
M  V30 150 C 5.4658 0.2276 0.7233 0
M  V30 151 C 5.2933 -0.7824 -0.1790 0
M  V30 152 C 6.3592 -1.1551 -1.0228 0
M  V30 153 H 7.2611 -3.2617 -3.5370 0
M  V30 154 H 9.4280 -2.1688 -3.1686 0
M  V30 155 H 9.6649 -0.3782 -1.4941 0
M  V30 156 H 8.5931 1.1077 0.2314 0
M  V30 157 H 4.6790 0.5452 1.4048 0
M  V30 158 H 4.3518 -1.3006 -0.2639 0
M  V30 159 C 2.5954 -3.6958 -2.7742 0
M  V30 160 C 1.4935 -3.2119 -2.0585 0
M  V30 161 C 0.2315 -3.6956 -2.3191 0
M  V30 162 C 0.0415 -4.6774 -3.2984 0
M  V30 163 C 1.1431 -5.1608 -4.0151 0
M  V30 164 C 2.4056 -4.6743 -3.7570 0
M  V30 165 H 1.6438 -2.4607 -1.2994 0
M  V30 166 H -0.6177 -3.3330 -1.7627 0
M  V30 167 H 0.9963 -5.9189 -4.7699 0
M  V30 168 H 3.2552 -5.0483 -4.3086 0
M  V30 169 C -1.2407 -5.2031 -3.5455 0
M  V30 170 C -2.3398 -5.6732 -3.7356 0
M  V30 171 C -3.5741 -6.3182 -3.9314 0
M  V30 172 C -3.6200 -7.5193 -4.6177 0
M  V30 173 C -4.8202 -8.2214 -4.7634 0
M  V30 174 C -5.9865 -7.7496 -4.2134 0
M  V30 175 C -5.9902 -6.5281 -3.5165 0
M  V30 176 C -7.1509 -5.9934 -2.9127 0
M  V30 177 C -7.0899 -4.7919 -2.2689 0
M  V30 178 N -5.9472 -4.0640 -2.2103 0
M  V30 179 C -4.8378 -4.5403 -2.7400 0
M  V30 180 C -4.7819 -5.7827 -3.3905 0
M  V30 181 H -2.7113 -7.9245 -5.0358 0
M  V30 182 H -4.8181 -9.1550 -5.3052 0
M  V30 183 H -6.9060 -8.3057 -4.3078 0
M  V30 184 H -8.0763 -6.5443 -2.9651 0
M  V30 185 H -7.9592 -4.3633 -1.7737 0
M  V30 186 H -3.9440 -3.9245 -2.6664 0
M  V30 END ATOM
M  V30 BEGIN BOND
M  V30 1 3 3 4
M  V30 2 1 4 5
M  V30 3 2 5 6
M  V30 4 1 6 7
M  V30 5 2 7 8
M  V30 6 1 8 9
M  V30 7 2 9 10
M  V30 8 1 10 11
M  V30 9 2 11 12
M  V30 10 1 12 13
M  V30 11 2 13 14
M  V30 12 1 14 5
M  V30 13 1 14 9
M  V30 14 1 6 15
M  V30 15 1 7 16
M  V30 16 1 8 17
M  V30 17 1 10 18
M  V30 18 1 12 19
M  V30 19 1 13 20
M  V30 20 2 21 22
M  V30 21 1 22 23
M  V30 22 2 23 24
M  V30 23 1 24 25
M  V30 24 2 25 26
M  V30 25 1 26 21
M  V30 26 1 22 27
M  V30 27 1 23 28
M  V30 28 1 25 29
M  V30 29 1 26 30
M  V30 30 3 31 32
M  V30 31 1 32 33
M  V30 32 2 33 34
M  V30 33 1 34 35
M  V30 34 2 35 36
M  V30 35 1 36 37
M  V30 36 2 37 38
M  V30 37 1 38 39
M  V30 38 2 39 40
M  V30 39 1 40 41
M  V30 40 2 41 42
M  V30 41 1 42 33
M  V30 42 1 42 37
M  V30 43 1 34 43
M  V30 44 1 35 44
M  V30 45 1 36 45
M  V30 46 1 38 46
M  V30 47 1 39 47
M  V30 48 1 41 48
M  V30 49 1 3 21
M  V30 50 1 24 31
M  V30 51 3 49 50
M  V30 52 1 50 51
M  V30 53 2 51 52
M  V30 54 1 52 53
M  V30 55 2 53 54
M  V30 56 1 54 55
M  V30 57 2 55 56
M  V30 58 1 56 57
M  V30 59 2 57 58
M  V30 60 1 58 59
M  V30 61 2 59 60
M  V30 62 1 60 51
M  V30 63 1 60 55
M  V30 64 1 52 61
M  V30 65 1 53 62
M  V30 66 1 54 63
M  V30 67 1 56 64
M  V30 68 1 58 65
M  V30 69 1 59 66
M  V30 70 2 67 68
M  V30 71 1 68 69
M  V30 72 2 69 70
M  V30 73 1 70 71
M  V30 74 2 71 72
M  V30 75 1 72 67
M  V30 76 1 68 73
M  V30 77 1 69 74
M  V30 78 1 71 75
M  V30 79 1 72 76
M  V30 80 3 77 78
M  V30 81 1 78 79
M  V30 82 2 79 80
M  V30 83 1 80 81
M  V30 84 2 81 82
M  V30 85 1 82 83
M  V30 86 2 83 84
M  V30 87 1 84 85
M  V30 88 2 85 86
M  V30 89 1 86 87
M  V30 90 2 87 88
M  V30 91 1 88 79
M  V30 92 1 88 83
M  V30 93 1 80 89
M  V30 94 1 81 90
M  V30 95 1 82 91
M  V30 96 1 84 92
M  V30 97 1 85 93
M  V30 98 1 87 94
M  V30 99 1 49 67
M  V30 100 1 70 77
M  V30 101 3 95 96
M  V30 102 1 96 97
M  V30 103 2 97 98
M  V30 104 1 98 99
M  V30 105 2 99 100
M  V30 106 1 100 101
M  V30 107 2 101 102
M  V30 108 1 102 103
M  V30 109 2 103 104
M  V30 110 1 104 105
M  V30 111 2 105 106
M  V30 112 1 106 97
M  V30 113 1 106 101
M  V30 114 1 98 107
M  V30 115 1 99 108
M  V30 116 1 100 109
M  V30 117 1 102 110
M  V30 118 1 104 111
M  V30 119 1 105 112
M  V30 120 2 113 114
M  V30 121 1 114 115
M  V30 122 2 115 116
M  V30 123 1 116 117
M  V30 124 2 117 118
M  V30 125 1 118 113
M  V30 126 1 114 119
M  V30 127 1 115 120
M  V30 128 1 117 121
M  V30 129 1 118 122
M  V30 130 3 123 124
M  V30 131 1 124 125
M  V30 132 2 125 126
M  V30 133 1 126 127
M  V30 134 2 127 128
M  V30 135 1 128 129
M  V30 136 2 129 130
M  V30 137 1 130 131
M  V30 138 2 131 132
M  V30 139 1 132 133
M  V30 140 2 133 134
M  V30 141 1 134 125
M  V30 142 1 134 129
M  V30 143 1 126 135
M  V30 144 1 127 136
M  V30 145 1 128 137
M  V30 146 1 130 138
M  V30 147 1 131 139
M  V30 148 1 133 140
M  V30 149 1 95 113
M  V30 150 1 116 123
M  V30 151 3 141 142
M  V30 152 1 142 143
M  V30 153 2 143 144
M  V30 154 1 144 145
M  V30 155 2 145 146
M  V30 156 1 146 147
M  V30 157 2 147 148
M  V30 158 1 148 149
M  V30 159 2 149 150
M  V30 160 1 150 151
M  V30 161 2 151 152
M  V30 162 1 152 143
M  V30 163 1 152 147
M  V30 164 1 144 153
M  V30 165 1 145 154
M  V30 166 1 146 155
M  V30 167 1 148 156
M  V30 168 1 150 157
M  V30 169 1 151 158
M  V30 170 2 159 160
M  V30 171 1 160 161
M  V30 172 2 161 162
M  V30 173 1 162 163
M  V30 174 2 163 164
M  V30 175 1 164 159
M  V30 176 1 160 165
M  V30 177 1 161 166
M  V30 178 1 163 167
M  V30 179 1 164 168
M  V30 180 3 169 170
M  V30 181 1 170 171
M  V30 182 2 171 172
M  V30 183 1 172 173
M  V30 184 2 173 174
M  V30 185 1 174 175
M  V30 186 2 175 176
M  V30 187 1 176 177
M  V30 188 2 177 178
M  V30 189 1 178 179
M  V30 190 2 179 180
M  V30 191 1 180 171
M  V30 192 1 180 175
M  V30 193 1 172 181
M  V30 194 1 173 182
M  V30 195 1 174 183
M  V30 196 1 176 184
M  V30 197 1 177 185
M  V30 198 1 179 186
M  V30 199 1 141 159
M  V30 200 1 162 169
M  V30 201 9 40 1
M  V30 202 9 86 1
M  V30 203 9 103 1
M  V30 204 9 149 1
M  V30 205 9 11 2
M  V30 206 9 57 2
M  V30 207 9 132 2
M  V30 208 9 178 2
M  V30 END BOND
M  V30 END CTAB
M  END

$$$$
