
     RDKit          3D

  0  0  0  0  0  0  0  0  0  0999 V3000
M  V30 BEGIN CTAB
M  V30 COUNTS 186 208 0 0 0
M  V30 BEGIN ATOM
M  V30 1 Pd 3.6340 -5.6438 1.7705 0 CHG=2
M  V30 2 Pd -3.5849 5.6654 -1.8027 0 CHG=2
M  V30 3 C -1.9975 2.0927 4.8432 0
M  V30 4 C -2.5975 3.0990 4.5413 0
M  V30 5 C -3.2385 4.2912 4.1562 0
M  V30 6 C -3.5915 5.2488 5.0915 0
M  V30 7 C -4.1748 6.4591 4.6995 0
M  V30 8 C -4.3930 6.7424 3.3754 0
M  V30 9 C -4.0515 5.7910 2.3908 0
M  V30 10 C -4.2048 6.0387 1.0131 0
M  V30 11 N -3.8873 5.1525 0.0932 0
M  V30 12 C -3.4312 3.9275 0.4580 0
M  V30 13 C -3.2196 3.5970 1.7657 0
M  V30 14 C -3.4946 4.5388 2.7778 0
M  V30 15 H -3.4080 5.0599 6.1383 0
M  V30 16 H -4.4412 7.1798 5.4572 0
M  V30 17 H -4.8230 7.6851 3.0770 0
M  V30 18 H -4.5907 6.9947 0.6680 0
M  V30 19 H -3.2460 3.2331 -0.3592 0
M  V30 20 H -2.8392 2.6269 2.0418 0
M  V30 21 C -1.2873 0.9234 5.1752 0
M  V30 22 C -1.0026 0.6223 6.5122 0
M  V30 23 C -0.3036 -0.5209 6.8310 0
M  V30 24 C 0.1294 -1.3872 5.8196 0
M  V30 25 C -0.1514 -1.0828 4.4826 0
M  V30 26 C -0.8532 0.0576 4.1640 0
M  V30 27 H -1.3380 1.2893 7.2924 0
M  V30 28 H -0.0876 -0.7563 7.8624 0
M  V30 29 H 0.1753 -1.7571 3.7074 0
M  V30 30 H -1.0773 0.2908 3.1352 0
M  V30 31 C 0.8147 -2.5698 6.1555 0
M  V30 32 C 1.3791 -3.6015 6.4425 0
M  V30 33 C 1.9464 -4.8264 6.8368 0
M  V30 34 C 1.8510 -5.2345 8.1560 0
M  V30 35 C 2.3385 -6.4800 8.5628 0
M  V30 36 C 2.9099 -7.3443 7.6618 0
M  V30 37 C 3.0381 -6.9684 6.3127 0
M  V30 38 C 3.6011 -7.8150 5.3309 0
M  V30 39 C 3.7150 -7.3798 4.0428 0
M  V30 40 N 3.3303 -6.1350 3.6669 0
M  V30 41 C 2.7780 -5.3247 4.5482 0
M  V30 42 C 2.5787 -5.6873 5.8894 0
M  V30 43 H 1.3814 -4.5841 8.8781 0
M  V30 44 H 2.2471 -6.7648 9.5999 0
M  V30 45 H 3.2637 -8.3141 7.9748 0
M  V30 46 H 3.9340 -8.8016 5.6110 0
M  V30 47 H 4.1224 -8.0149 3.2581 0
M  V30 48 H 2.4811 -4.3370 4.2021 0
M  V30 49 C 3.2149 4.4126 1.6210 0
M  V30 50 C 2.5624 5.3970 1.3584 0
M  V30 51 C 1.7504 6.5142 1.0851 0
M  V30 52 C 2.0266 7.7532 1.6362 0
M  V30 53 C 1.1816 8.8465 1.4125 0
M  V30 54 C 0.0445 8.7177 0.6571 0
M  V30 55 C -0.2681 7.4733 0.0694 0
M  V30 56 C -1.4403 7.2639 -0.6818 0
M  V30 57 N -1.7311 6.1057 -1.2360 0
M  V30 58 C -0.8658 5.0659 -1.1307 0
M  V30 59 C 0.2836 5.1554 -0.3988 0
M  V30 60 C 0.6024 6.3620 0.2566 0
M  V30 61 H 2.9026 7.8743 2.2552 0
M  V30 62 H 1.4305 9.7978 1.8568 0
M  V30 63 H -0.6145 9.5576 0.5053 0
M  V30 64 H -2.1544 8.0725 -0.8188 0
M  V30 65 H -1.1467 4.1632 -1.6687 0
M  V30 66 H 0.9544 4.3159 -0.3105 0
M  V30 67 C 3.9542 3.2496 1.9109 0
M  V30 68 C 5.2877 3.3385 2.3256 0
M  V30 69 C 6.0090 2.1939 2.5847 0
M  V30 70 C 5.4115 0.9355 2.4403 0
M  V30 71 C 4.0714 0.8490 2.0460 0
M  V30 72 C 3.3522 1.9922 1.7807 0
M  V30 73 H 5.7504 4.3083 2.4324 0
M  V30 74 H 7.0411 2.2609 2.8952 0
M  V30 75 H 3.6097 -0.1203 1.9485 0
M  V30 76 H 2.3203 1.9304 1.4732 0
M  V30 77 C 6.1762 -0.2257 2.6599 0
M  V30 78 C 6.8532 -1.2181 2.8089 0
M  V30 79 C 7.7218 -2.3172 2.9313 0
M  V30 80 C 9.0527 -2.1060 3.2485 0
M  V30 81 C 9.9575 -3.1698 3.3120 0
M  V30 82 C 9.5571 -4.4553 3.0427 0
M  V30 83 C 8.2135 -4.7194 2.7221 0
M  V30 84 C 7.7394 -6.0153 2.4162 0
M  V30 85 C 6.4196 -6.2054 2.1278 0
M  V30 86 N 5.5243 -5.1873 2.1502 0
M  V30 87 C 5.9312 -3.9606 2.4106 0
M  V30 88 C 7.2717 -3.6499 2.6864 0
M  V30 89 H 9.3972 -1.1014 3.4410 0
M  V30 90 H 10.9871 -2.9671 3.5641 0
M  V30 91 H 10.2623 -5.2710 3.0721 0
M  V30 92 H 8.4299 -6.8434 2.4106 0
M  V30 93 H 6.0260 -7.1859 1.8661 0
M  V30 94 H 5.1788 -3.1747 2.4142 0
M  V30 95 C 1.8183 -2.2379 -4.9103 0
M  V30 96 C 2.4020 -3.2520 -4.6027 0
M  V30 97 C 3.0272 -4.4498 -4.2072 0
M  V30 98 C 3.3109 -5.4469 -5.1240 0
M  V30 99 C 3.8754 -6.6614 -4.7168 0
M  V30 100 C 4.1456 -6.9072 -3.3951 0
M  V30 101 C 3.8800 -5.9124 -2.4297 0
M  V30 102 C 4.0956 -6.1163 -1.0534 0
M  V30 103 N 3.8543 -5.1879 -0.1518 0
M  V30 104 C 3.4190 -3.9623 -0.5385 0
M  V30 105 C 3.1494 -3.6718 -1.8451 0
M  V30 106 C 3.3416 -4.6577 -2.8342 0
M  V30 107 H 3.0846 -5.2875 -6.1673 0
M  V30 108 H 4.0851 -7.4147 -5.4604 0
M  V30 109 H 4.5606 -7.8524 -3.0837 0
M  V30 110 H 4.4687 -7.0722 -0.6936 0
M  V30 111 H 3.3038 -3.2308 0.2582 0
M  V30 112 H 2.7889 -2.6983 -2.1362 0
M  V30 113 C 1.1377 -1.0496 -5.2389 0
M  V30 114 C 0.4245 -0.3605 -4.2504 0
M  V30 115 C -0.2301 0.8107 -4.5580 0
M  V30 116 C -0.1807 1.3246 -5.8589 0
M  V30 117 C 0.5204 0.6271 -6.8508 0
M  V30 118 C 1.1701 -0.5484 -6.5449 0
M  V30 119 H 0.3922 -0.7585 -3.2487 0
M  V30 120 H -0.7815 1.3421 -3.7995 0
M  V30 121 H 0.5529 1.0200 -7.8560 0
M  V30 122 H 1.7146 -1.0831 -7.3090 0
M  V30 123 C -0.7969 2.5498 -6.1754 0
M  V30 124 C -1.2865 3.6231 -6.4471 0
M  V30 125 C -1.7659 4.8903 -6.8240 0
M  V30 126 C -1.5908 5.3294 -8.1251 0
M  V30 127 C -1.9948 6.6095 -8.5156 0
M  V30 128 C -2.5605 7.4777 -7.6147 0
M  V30 129 C -2.7642 7.0736 -6.2833 0
M  V30 130 C -3.3235 7.9232 -5.3019 0
M  V30 131 C -3.5080 7.4635 -4.0306 0
M  V30 132 N -3.1956 6.1938 -3.6722 0
M  V30 133 C -2.6527 5.3773 -4.5536 0
M  V30 134 C -2.3886 5.7596 -5.8779 0
M  V30 135 H -1.1267 4.6741 -8.8462 0
M  V30 136 H -1.8438 6.9168 -9.5392 0
M  V30 137 H -2.8518 8.4721 -7.9144 0
M  V30 138 H -3.5968 8.9316 -5.5688 0
M  V30 139 H -3.9151 8.0984 -3.2456 0
M  V30 140 H -2.4153 4.3690 -4.2209 0
M  V30 141 C -3.2823 -4.3733 -1.3905 0
M  V30 142 C -2.6431 -5.3629 -1.1148 0
M  V30 143 C -1.8461 -6.4878 -0.8319 0
M  V30 144 C -2.1756 -7.7402 -1.3212 0
M  V30 145 C -1.3494 -8.8455 -1.0882 0
M  V30 146 C -0.1773 -8.7168 -0.3880 0
M  V30 147 C 0.1927 -7.4580 0.1317 0
M  V30 148 C 1.4047 -7.2484 0.8168 0
M  V30 149 N 1.7513 -6.0753 1.3029 0
M  V30 150 C 0.9089 -5.0172 1.1911 0
M  V30 151 C -0.2768 -5.1075 0.5205 0
M  V30 152 C -0.6582 -6.3329 -0.0628 0
M  V30 153 H -3.0810 -7.8630 -1.8961 0
M  V30 154 H -1.6411 -9.8073 -1.4812 0
M  V30 155 H 0.4665 -9.5672 -0.2295 0
M  V30 156 H 2.1041 -8.0689 0.9568 0
M  V30 157 H 1.2435 -4.0983 1.6688 0
M  V30 158 H -0.9293 -4.2549 0.4223 0
M  V30 159 C -4.0066 -3.2102 -1.7135 0
M  V30 160 C -3.5485 -1.9588 -1.2837 0
M  V30 161 C -4.2483 -0.8176 -1.6036 0
M  V30 162 C -5.4248 -0.9005 -2.3574 0
M  V30 163 C -5.8826 -2.1517 -2.7883 0
M  V30 164 C -5.1806 -3.2935 -2.4714 0
M  V30 165 H -2.6457 -1.8985 -0.6968 0
M  V30 166 H -3.9044 0.1465 -1.2654 0
M  V30 167 H -6.7908 -2.2154 -3.3690 0
M  V30 168 H -5.5346 -4.2584 -2.8023 0
M  V30 169 C -6.1655 0.2583 -2.6578 0
M  V30 170 C -6.8148 1.2530 -2.8901 0
M  V30 171 C -7.6539 2.3604 -3.1079 0
M  V30 172 C -8.9632 2.1613 -3.5101 0
M  V30 173 C -9.8427 3.2374 -3.6621 0
M  V30 174 C -9.4390 4.5231 -3.3984 0
M  V30 175 C -8.1148 4.7748 -2.9974 0
M  V30 176 C -7.6385 6.0707 -2.6950 0
M  V30 177 C -6.3352 6.2480 -2.3318 0
M  V30 178 N -5.4565 5.2165 -2.2776 0
M  V30 179 C -5.8685 3.9895 -2.5286 0
M  V30 180 C -7.1962 3.6921 -2.8729 0
M  V30 181 H -9.3121 1.1573 -3.6970 0
M  V30 182 H -10.8568 3.0443 -3.9776 0
M  V30 183 H -10.1270 5.3484 -3.4943 0
M  V30 184 H -8.3137 6.9094 -2.7523 0
M  V30 185 H -5.9425 7.2288 -2.0702 0
M  V30 186 H -5.1305 3.1924 -2.4697 0
M  V30 END ATOM
M  V30 BEGIN BOND
M  V30 1 3 3 4
M  V30 2 1 4 5
M  V30 3 2 5 6
M  V30 4 1 6 7
M  V30 5 2 7 8
M  V30 6 1 8 9
M  V30 7 2 9 10
M  V30 8 1 10 11
M  V30 9 2 11 12
M  V30 10 1 12 13
M  V30 11 2 13 14
M  V30 12 1 14 5
M  V30 13 1 14 9
M  V30 14 1 6 15
M  V30 15 1 7 16
M  V30 16 1 8 17
M  V30 17 1 10 18
M  V30 18 1 12 19
M  V30 19 1 13 20
M  V30 20 2 21 22
M  V30 21 1 22 23
M  V30 22 2 23 24
M  V30 23 1 24 25
M  V30 24 2 25 26
M  V30 25 1 26 21
M  V30 26 1 22 27
M  V30 27 1 23 28
M  V30 28 1 25 29
M  V30 29 1 26 30
M  V30 30 3 31 32
M  V30 31 1 32 33
M  V30 32 2 33 34
M  V30 33 1 34 35
M  V30 34 2 35 36
M  V30 35 1 36 37
M  V30 36 2 37 38
M  V30 37 1 38 39
M  V30 38 2 39 40
M  V30 39 1 40 41
M  V30 40 2 41 42
M  V30 41 1 42 33
M  V30 42 1 42 37
M  V30 43 1 34 43
M  V30 44 1 35 44
M  V30 45 1 36 45
M  V30 46 1 38 46
M  V30 47 1 39 47
M  V30 48 1 41 48
M  V30 49 1 3 21
M  V30 50 1 24 31
M  V30 51 3 49 50
M  V30 52 1 50 51
M  V30 53 2 51 52
M  V30 54 1 52 53
M  V30 55 2 53 54
M  V30 56 1 54 55
M  V30 57 2 55 56
M  V30 58 1 56 57
M  V30 59 2 57 58
M  V30 60 1 58 59
M  V30 61 2 59 60
M  V30 62 1 60 51
M  V30 63 1 60 55
M  V30 64 1 52 61
M  V30 65 1 53 62
M  V30 66 1 54 63
M  V30 67 1 56 64
M  V30 68 1 58 65
M  V30 69 1 59 66
M  V30 70 2 67 68
M  V30 71 1 68 69
M  V30 72 2 69 70
M  V30 73 1 70 71
M  V30 74 2 71 72
M  V30 75 1 72 67
M  V30 76 1 68 73
M  V30 77 1 69 74
M  V30 78 1 71 75
M  V30 79 1 72 76
M  V30 80 3 77 78
M  V30 81 1 78 79
M  V30 82 2 79 80
M  V30 83 1 80 81
M  V30 84 2 81 82
M  V30 85 1 82 83
M  V30 86 2 83 84
M  V30 87 1 84 85
M  V30 88 2 85 86
M  V30 89 1 86 87
M  V30 90 2 87 88
M  V30 91 1 88 79
M  V30 92 1 88 83
M  V30 93 1 80 89
M  V30 94 1 81 90
M  V30 95 1 82 91
M  V30 96 1 84 92
M  V30 97 1 85 93
M  V30 98 1 87 94
M  V30 99 1 49 67
M  V30 100 1 70 77
M  V30 101 3 95 96
M  V30 102 1 96 97
M  V30 103 2 97 98
M  V30 104 1 98 99
M  V30 105 2 99 100
M  V30 106 1 100 101
M  V30 107 2 101 102
M  V30 108 1 102 103
M  V30 109 2 103 104
M  V30 110 1 104 105
M  V30 111 2 105 106
M  V30 112 1 106 97
M  V30 113 1 106 101
M  V30 114 1 98 107
M  V30 115 1 99 108
M  V30 116 1 100 109
M  V30 117 1 102 110
M  V30 118 1 104 111
M  V30 119 1 105 112
M  V30 120 2 113 114
M  V30 121 1 114 115
M  V30 122 2 115 116
M  V30 123 1 116 117
M  V30 124 2 117 118
M  V30 125 1 118 113
M  V30 126 1 114 119
M  V30 127 1 115 120
M  V30 128 1 117 121
M  V30 129 1 118 122
M  V30 130 3 123 124
M  V30 131 1 124 125
M  V30 132 2 125 126
M  V30 133 1 126 127
M  V30 134 2 127 128
M  V30 135 1 128 129
M  V30 136 2 129 130
M  V30 137 1 130 131
M  V30 138 2 131 132
M  V30 139 1 132 133
M  V30 140 2 133 134
M  V30 141 1 134 125
M  V30 142 1 134 129
M  V30 143 1 126 135
M  V30 144 1 127 136
M  V30 145 1 128 137
M  V30 146 1 130 138
M  V30 147 1 131 139
M  V30 148 1 133 140
M  V30 149 1 95 113
M  V30 150 1 116 123
M  V30 151 3 141 142
M  V30 152 1 142 143
M  V30 153 2 143 144
M  V30 154 1 144 145
M  V30 155 2 145 146
M  V30 156 1 146 147
M  V30 157 2 147 148
M  V30 158 1 148 149
M  V30 159 2 149 150
M  V30 160 1 150 151
M  V30 161 2 151 152
M  V30 162 1 152 143
M  V30 163 1 152 147
M  V30 164 1 144 153
M  V30 165 1 145 154
M  V30 166 1 146 155
M  V30 167 1 148 156
M  V30 168 1 150 157
M  V30 169 1 151 158
M  V30 170 2 159 160
M  V30 171 1 160 161
M  V30 172 2 161 162
M  V30 173 1 162 163
M  V30 174 2 163 164
M  V30 175 1 164 159
M  V30 176 1 160 165
M  V30 177 1 161 166
M  V30 178 1 163 167
M  V30 179 1 164 168
M  V30 180 3 169 170
M  V30 181 1 170 171
M  V30 182 2 171 172
M  V30 183 1 172 173
M  V30 184 2 173 174
M  V30 185 1 174 175
M  V30 186 2 175 176
M  V30 187 1 176 177
M  V30 188 2 177 178
M  V30 189 1 178 179
M  V30 190 2 179 180
M  V30 191 1 180 171
M  V30 192 1 180 175
M  V30 193 1 172 181
M  V30 194 1 173 182
M  V30 195 1 174 183
M  V30 196 1 176 184
M  V30 197 1 177 185
M  V30 198 1 179 186
M  V30 199 1 141 159
M  V30 200 1 162 169
M  V30 201 9 40 1
M  V30 202 9 86 1
M  V30 203 9 103 1
M  V30 204 9 149 1
M  V30 205 9 11 2
M  V30 206 9 57 2
M  V30 207 9 132 2
M  V30 208 9 178 2
M  V30 END BOND
M  V30 END CTAB
M  END

$$$$
