
     RDKit          3D

  0  0  0  0  0  0  0  0  0  0999 V3000
M  V30 BEGIN CTAB
M  V30 COUNTS 186 208 0 0 0
M  V30 BEGIN ATOM
M  V30 1 Pd -1.1071 7.2052 0.8457 0 CHG=2
M  V30 2 Pd 2.5556 -6.1276 -0.4198 0 CHG=2
M  V30 3 C 6.2490 0.3822 1.4332 0
M  V30 4 C 6.5655 -0.7832 1.3596 0
M  V30 5 C 6.8812 -2.1540 1.3173 0
M  V30 6 C 8.0602 -2.6345 1.8608 0
M  V30 7 C 8.3440 -4.0048 1.8704 0
M  V30 8 C 7.4524 -4.9149 1.3625 0
M  V30 9 C 6.2409 -4.4658 0.7952 0
M  V30 10 C 5.2627 -5.3500 0.3010 0
M  V30 11 N 4.1323 -4.9332 -0.2290 0
M  V30 12 C 3.8903 -3.6038 -0.3556 0
M  V30 13 C 4.7606 -2.6643 0.1174 0
M  V30 14 C 5.9568 -3.0715 0.7420 0
M  V30 15 H 8.7678 -1.9405 2.2887 0
M  V30 16 H 9.2755 -4.3421 2.2984 0
M  V30 17 H 7.6662 -5.9714 1.3916 0
M  V30 18 H 5.4184 -6.4246 0.3544 0
M  V30 19 H 2.9598 -3.3416 -0.8556 0
M  V30 20 H 4.5484 -1.6112 0.0276 0
M  V30 21 C 5.8591 1.7320 1.5221 0
M  V30 22 C 6.7216 2.6840 2.0778 0
M  V30 23 C 6.3332 4.0026 2.1663 0
M  V30 24 C 5.0720 4.3982 1.7039 0
M  V30 25 C 4.2082 3.4446 1.1528 0
M  V30 26 C 4.5976 2.1277 1.0609 0
M  V30 27 H 7.6949 2.3795 2.4328 0
M  V30 28 H 6.9997 4.7384 2.5907 0
M  V30 29 H 3.2418 3.7548 0.7892 0
M  V30 30 H 3.9369 1.3922 0.6300 0
M  V30 31 C 4.6952 5.7528 1.7680 0
M  V30 32 C 4.3793 6.9210 1.7955 0
M  V30 33 C 4.1023 8.2995 1.7668 0
M  V30 34 C 5.1259 9.2101 1.9641 0
M  V30 35 C 4.8965 10.5857 1.8670 0
M  V30 36 C 3.6521 11.0745 1.5541 0
M  V30 37 C 2.5789 10.1876 1.3556 0
M  V30 38 C 1.2776 10.6221 1.0158 0
M  V30 39 C 0.2759 9.7093 0.8580 0
M  V30 40 N 0.4760 8.3813 1.0466 0
M  V30 41 C 1.6811 7.9344 1.3401 0
M  V30 42 C 2.7887 8.7839 1.4867 0
M  V30 43 H 6.1192 8.8496 2.1843 0
M  V30 44 H 5.7187 11.2663 2.0273 0
M  V30 45 H 3.4839 12.1356 1.4569 0
M  V30 46 H 1.0898 11.6754 0.8819 0
M  V30 47 H -0.7314 10.0085 0.5739 0
M  V30 48 H 1.7965 6.8617 1.4790 0
M  V30 49 C 1.4290 -1.3394 5.5242 0
M  V30 50 C 1.7999 -2.4855 5.4127 0
M  V30 51 C 2.2789 -3.7980 5.2389 0
M  V30 52 C 2.8804 -4.4851 6.2787 0
M  V30 53 C 3.4113 -5.7658 6.0850 0
M  V30 54 C 3.3692 -6.3695 4.8546 0
M  V30 55 C 2.7560 -5.7062 3.7702 0
M  V30 56 C 2.7165 -6.2523 2.4731 0
M  V30 57 N 2.1398 -5.6382 1.4615 0
M  V30 58 C 1.5148 -4.4496 1.6552 0
M  V30 59 C 1.5218 -3.8202 2.8670 0
M  V30 60 C 2.1775 -4.4191 3.9617 0
M  V30 61 H 2.9482 -4.0214 7.2511 0
M  V30 62 H 3.8708 -6.2720 6.9199 0
M  V30 63 H 3.7987 -7.3472 4.7053 0
M  V30 64 H 3.1796 -7.2151 2.2703 0
M  V30 65 H 1.0080 -4.0369 0.7857 0
M  V30 66 H 1.0346 -2.8680 3.0027 0
M  V30 67 C 0.9909 -0.0047 5.6239 0
M  V30 68 C 0.6424 0.5395 6.8651 0
M  V30 69 C 0.1933 1.8390 6.9488 0
M  V30 70 C 0.0880 2.6249 5.7942 0
M  V30 71 C 0.4572 2.0859 4.5565 0
M  V30 72 C 0.8998 0.7853 4.4715 0
M  V30 73 H 0.7187 -0.0675 7.7549 0
M  V30 74 H -0.0854 2.2569 7.9047 0
M  V30 75 H 0.3881 2.6970 3.6711 0
M  V30 76 H 1.1821 0.3645 3.5195 0
M  V30 77 C -0.4202 3.9341 5.8893 0
M  V30 78 C -0.8983 5.0429 5.9749 0
M  V30 79 C -1.5256 6.2896 6.1476 0
M  V30 80 C -1.9223 6.6869 7.4130 0
M  V30 81 C -2.6080 7.8891 7.6105 0
M  V30 82 C -2.9259 8.7037 6.5518 0
M  V30 83 C -2.5380 8.3446 5.2487 0
M  V30 84 C -2.8490 9.1274 4.1137 0
M  V30 85 C -2.4296 8.7292 2.8780 0
M  V30 86 N -1.6903 7.6073 2.6960 0
M  V30 87 C -1.3973 6.8395 3.7270 0
M  V30 88 C -1.8087 7.1385 5.0350 0
M  V30 89 H -1.7053 6.0523 8.2586 0
M  V30 90 H -2.9000 8.1669 8.6117 0
M  V30 91 H -3.4735 9.6203 6.7052 0
M  V30 92 H -3.4202 10.0336 4.2367 0
M  V30 93 H -2.6711 9.2965 1.9810 0
M  V30 94 H -0.8051 5.9474 3.5335 0
M  V30 95 C -4.7482 0.7444 -1.2830 0
M  V30 96 C -5.0532 1.9136 -1.2241 0
M  V30 97 C -5.3534 3.2888 -1.1932 0
M  V30 98 C -6.4902 3.7882 -1.8044 0
M  V30 99 C -6.7528 5.1629 -1.8253 0
M  V30 100 C -5.8816 6.0574 -1.2586 0
M  V30 101 C -4.7155 5.5881 -0.6169 0
M  V30 102 C -3.7608 6.4552 -0.0522 0
M  V30 103 N -2.6754 6.0195 0.5521 0
M  V30 104 C -2.4620 4.6864 0.6875 0
M  V30 105 C -3.3105 3.7618 0.1493 0
M  V30 106 C -4.4548 4.1895 -0.5542 0
M  V30 107 H -7.1794 3.1066 -2.2794 0
M  V30 108 H -7.6506 5.5154 -2.3091 0
M  V30 109 H -6.0776 7.1172 -1.2960 0
M  V30 110 H -3.8977 7.5324 -0.1103 0
M  V30 111 H -1.5764 4.4066 1.2537 0
M  V30 112 H -3.1201 2.7054 0.2509 0
M  V30 113 C -4.3665 -0.6101 -1.3379 0
M  V30 114 C -3.0183 -0.9592 -1.1929 0
M  V30 115 C -2.6375 -2.2816 -1.2283 0
M  V30 116 C -3.5964 -3.2863 -1.4018 0
M  V30 117 C -4.9429 -2.9357 -1.5618 0
M  V30 118 C -5.3235 -1.6121 -1.5330 0
M  V30 119 H -2.2836 -0.1819 -1.0559 0
M  V30 120 H -1.6001 -2.5530 -1.1190 0
M  V30 121 H -5.6818 -3.7104 -1.7024 0
M  V30 122 H -6.3626 -1.3428 -1.6514 0
M  V30 123 C -3.2301 -4.6452 -1.3832 0
M  V30 124 C -2.9313 -5.8169 -1.3255 0
M  V30 125 C -2.6766 -7.1942 -1.2003 0
M  V30 126 C -3.7203 -8.0967 -1.3129 0
M  V30 127 C -3.5134 -9.4667 -1.1269 0
M  V30 128 C -2.2711 -9.9571 -0.8077 0
M  V30 129 C -1.1792 -9.0790 -0.6889 0
M  V30 130 C 0.1205 -9.5150 -0.3450 0
M  V30 131 C 1.1400 -8.6123 -0.2609 0
M  V30 132 N 0.9581 -7.2950 -0.5252 0
M  V30 133 C -0.2436 -6.8458 -0.8292 0
M  V30 134 C -1.3671 -7.6831 -0.9089 0
M  V30 135 H -4.7110 -7.7334 -1.5395 0
M  V30 136 H -4.3508 -10.1407 -1.2243 0
M  V30 137 H -2.1195 -11.0124 -0.6443 0
M  V30 138 H 0.2927 -10.5613 -0.1485 0
M  V30 139 H 2.1474 -8.9110 0.0234 0
M  V30 140 H -0.3433 -5.7812 -1.0299 0
M  V30 141 C 0.2991 2.4848 -5.0858 0
M  V30 142 C -0.0554 3.6370 -4.9826 0
M  V30 143 C -0.5205 4.9554 -4.8211 0
M  V30 144 C -1.0467 5.6648 -5.8870 0
M  V30 145 C -1.5631 6.9535 -5.7107 0
M  V30 146 C -1.5844 7.5433 -4.4727 0
M  V30 147 C -1.0535 6.8555 -3.3608 0
M  V30 148 C -1.0886 7.3841 -2.0562 0
M  V30 149 N -0.5933 6.7445 -1.0179 0
M  V30 150 C 0.0187 5.5450 -1.1869 0
M  V30 151 C 0.0806 4.9326 -2.4055 0
M  V30 152 C -0.4879 5.5600 -3.5326 0
M  V30 153 H -1.0635 5.2132 -6.8673 0
M  V30 154 H -1.9607 7.4781 -6.5659 0
M  V30 155 H -2.0029 8.5280 -4.3383 0
M  V30 156 H -1.5444 8.3534 -1.8699 0
M  V30 157 H 0.4520 5.1086 -0.2890 0
M  V30 158 H 0.5532 3.9709 -2.5237 0
M  V30 159 C 0.7023 1.1397 -5.1857 0
M  V30 160 C 1.1118 0.4453 -4.0408 0
M  V30 161 C 1.4992 -0.8723 -4.1313 0
M  V30 162 C 1.4904 -1.5260 -5.3690 0
M  V30 163 C 1.0800 -0.8321 -6.5139 0
M  V30 164 C 0.6888 0.4854 -6.4230 0
M  V30 165 H 1.1246 0.9535 -3.0897 0
M  V30 166 H 1.8252 -1.4070 -3.2538 0
M  V30 167 H 1.0742 -1.3363 -7.4688 0
M  V30 168 H 0.3739 1.0208 -7.3062 0
M  V30 169 C 1.9196 -2.8623 -5.4756 0
M  V30 170 C 2.3160 -4.0022 -5.5685 0
M  V30 171 C 2.8521 -5.2899 -5.7484 0
M  V30 172 C 3.1713 -5.7292 -7.0215 0
M  V30 173 C 3.7747 -6.9739 -7.2250 0
M  V30 174 C 4.0862 -7.7901 -6.1657 0
M  V30 175 C 3.7710 -7.3902 -4.8549 0
M  V30 176 C 4.0779 -8.1739 -3.7194 0
M  V30 177 C 3.7250 -7.7363 -2.4761 0
M  V30 178 N 3.0534 -6.5735 -2.2861 0
M  V30 179 C 2.7707 -5.8029 -3.3178 0
M  V30 180 C 3.1229 -6.1401 -4.6339 0
M  V30 181 H 2.9612 -5.0939 -7.8683 0
M  V30 182 H 4.0092 -7.2836 -8.2320 0
M  V30 183 H 4.5729 -8.7395 -6.3248 0
M  V30 184 H 4.5925 -9.1127 -3.8479 0
M  V30 185 H 3.9669 -8.3042 -1.5796 0
M  V30 186 H 2.2343 -4.8777 -3.1187 0
M  V30 END ATOM
M  V30 BEGIN BOND
M  V30 1 3 3 4
M  V30 2 1 4 5
M  V30 3 2 5 6
M  V30 4 1 6 7
M  V30 5 2 7 8
M  V30 6 1 8 9
M  V30 7 2 9 10
M  V30 8 1 10 11
M  V30 9 2 11 12
M  V30 10 1 12 13
M  V30 11 2 13 14
M  V30 12 1 14 5
M  V30 13 1 14 9
M  V30 14 1 6 15
M  V30 15 1 7 16
M  V30 16 1 8 17
M  V30 17 1 10 18
M  V30 18 1 12 19
M  V30 19 1 13 20
M  V30 20 2 21 22
M  V30 21 1 22 23
M  V30 22 2 23 24
M  V30 23 1 24 25
M  V30 24 2 25 26
M  V30 25 1 26 21
M  V30 26 1 22 27
M  V30 27 1 23 28
M  V30 28 1 25 29
M  V30 29 1 26 30
M  V30 30 3 31 32
M  V30 31 1 32 33
M  V30 32 2 33 34
M  V30 33 1 34 35
M  V30 34 2 35 36
M  V30 35 1 36 37
M  V30 36 2 37 38
M  V30 37 1 38 39
M  V30 38 2 39 40
M  V30 39 1 40 41
M  V30 40 2 41 42
M  V30 41 1 42 33
M  V30 42 1 42 37
M  V30 43 1 34 43
M  V30 44 1 35 44
M  V30 45 1 36 45
M  V30 46 1 38 46
M  V30 47 1 39 47
M  V30 48 1 41 48
M  V30 49 1 3 21
M  V30 50 1 24 31
M  V30 51 3 49 50
M  V30 52 1 50 51
M  V30 53 2 51 52
M  V30 54 1 52 53
M  V30 55 2 53 54
M  V30 56 1 54 55
M  V30 57 2 55 56
M  V30 58 1 56 57
M  V30 59 2 57 58
M  V30 60 1 58 59
M  V30 61 2 59 60
M  V30 62 1 60 51
M  V30 63 1 60 55
M  V30 64 1 52 61
M  V30 65 1 53 62
M  V30 66 1 54 63
M  V30 67 1 56 64
M  V30 68 1 58 65
M  V30 69 1 59 66
M  V30 70 2 67 68
M  V30 71 1 68 69
M  V30 72 2 69 70
M  V30 73 1 70 71
M  V30 74 2 71 72
M  V30 75 1 72 67
M  V30 76 1 68 73
M  V30 77 1 69 74
M  V30 78 1 71 75
M  V30 79 1 72 76
M  V30 80 3 77 78
M  V30 81 1 78 79
M  V30 82 2 79 80
M  V30 83 1 80 81
M  V30 84 2 81 82
M  V30 85 1 82 83
M  V30 86 2 83 84
M  V30 87 1 84 85
M  V30 88 2 85 86
M  V30 89 1 86 87
M  V30 90 2 87 88
M  V30 91 1 88 79
M  V30 92 1 88 83
M  V30 93 1 80 89
M  V30 94 1 81 90
M  V30 95 1 82 91
M  V30 96 1 84 92
M  V30 97 1 85 93
M  V30 98 1 87 94
M  V30 99 1 49 67
M  V30 100 1 70 77
M  V30 101 3 95 96
M  V30 102 1 96 97
M  V30 103 2 97 98
M  V30 104 1 98 99
M  V30 105 2 99 100
M  V30 106 1 100 101
M  V30 107 2 101 102
M  V30 108 1 102 103
M  V30 109 2 103 104
M  V30 110 1 104 105
M  V30 111 2 105 106
M  V30 112 1 106 97
M  V30 113 1 106 101
M  V30 114 1 98 107
M  V30 115 1 99 108
M  V30 116 1 100 109
M  V30 117 1 102 110
M  V30 118 1 104 111
M  V30 119 1 105 112
M  V30 120 2 113 114
M  V30 121 1 114 115
M  V30 122 2 115 116
M  V30 123 1 116 117
M  V30 124 2 117 118
M  V30 125 1 118 113
M  V30 126 1 114 119
M  V30 127 1 115 120
M  V30 128 1 117 121
M  V30 129 1 118 122
M  V30 130 3 123 124
M  V30 131 1 124 125
M  V30 132 2 125 126
M  V30 133 1 126 127
M  V30 134 2 127 128
M  V30 135 1 128 129
M  V30 136 2 129 130
M  V30 137 1 130 131
M  V30 138 2 131 132
M  V30 139 1 132 133
M  V30 140 2 133 134
M  V30 141 1 134 125
M  V30 142 1 134 129
M  V30 143 1 126 135
M  V30 144 1 127 136
M  V30 145 1 128 137
M  V30 146 1 130 138
M  V30 147 1 131 139
M  V30 148 1 133 140
M  V30 149 1 95 113
M  V30 150 1 116 123
M  V30 151 3 141 142
M  V30 152 1 142 143
M  V30 153 2 143 144
M  V30 154 1 144 145
M  V30 155 2 145 146
M  V30 156 1 146 147
M  V30 157 2 147 148
M  V30 158 1 148 149
M  V30 159 2 149 150
M  V30 160 1 150 151
M  V30 161 2 151 152
M  V30 162 1 152 143
M  V30 163 1 152 147
M  V30 164 1 144 153
M  V30 165 1 145 154
M  V30 166 1 146 155
M  V30 167 1 148 156
M  V30 168 1 150 157
M  V30 169 1 151 158
M  V30 170 2 159 160
M  V30 171 1 160 161
M  V30 172 2 161 162
M  V30 173 1 162 163
M  V30 174 2 163 164
M  V30 175 1 164 159
M  V30 176 1 160 165
M  V30 177 1 161 166
M  V30 178 1 163 167
M  V30 179 1 164 168
M  V30 180 3 169 170
M  V30 181 1 170 171
M  V30 182 2 171 172
M  V30 183 1 172 173
M  V30 184 2 173 174
M  V30 185 1 174 175
M  V30 186 2 175 176
M  V30 187 1 176 177
M  V30 188 2 177 178
M  V30 189 1 178 179
M  V30 190 2 179 180
M  V30 191 1 180 171
M  V30 192 1 180 175
M  V30 193 1 172 181
M  V30 194 1 173 182
M  V30 195 1 174 183
M  V30 196 1 176 184
M  V30 197 1 177 185
M  V30 198 1 179 186
M  V30 199 1 141 159
M  V30 200 1 162 169
M  V30 201 9 40 1
M  V30 202 9 86 1
M  V30 203 9 103 1
M  V30 204 9 149 1
M  V30 205 9 11 2
M  V30 206 9 57 2
M  V30 207 9 132 2
M  V30 208 9 178 2
M  V30 END BOND
M  V30 END CTAB
M  END

$$$$
