
     RDKit          3D

  0  0  0  0  0  0  0  0  0  0999 V3000
M  V30 BEGIN CTAB
M  V30 COUNTS 186 208 0 0 0
M  V30 BEGIN ATOM
M  V30 1 Pd 1.8324 5.1767 4.0572 0 CHG=2
M  V30 2 Pd -0.7205 -5.7171 -4.1640 0 CHG=2
M  V30 3 C -5.0582 -0.9740 0.0951 0
M  V30 4 C -5.2898 -1.8999 -0.6485 0
M  V30 5 C -5.5227 -2.9440 -1.5629 0
M  V30 6 C -6.7945 -3.2046 -2.0434 0
M  V30 7 C -7.0140 -4.2046 -2.9976 0
M  V30 8 C -5.9727 -4.9407 -3.5023 0
M  V30 9 C -4.6613 -4.7094 -3.0354 0
M  V30 10 C -3.5434 -5.3962 -3.5467 0
M  V30 11 N -2.3195 -5.1822 -3.1122 0
M  V30 12 C -2.1005 -4.3012 -2.1035 0
M  V30 13 C -3.1116 -3.5632 -1.5585 0
M  V30 14 C -4.4285 -3.7229 -2.0352 0
M  V30 15 H -7.6278 -2.6226 -1.6798 0
M  V30 16 H -8.0200 -4.3826 -3.3454 0
M  V30 17 H -6.1441 -5.6955 -4.2530 0
M  V30 18 H -3.6668 -6.1315 -4.3378 0
M  V30 19 H -1.0696 -4.2238 -1.7634 0
M  V30 20 H -2.9221 -2.8528 -0.7702 0
M  V30 21 C -4.7691 0.1070 0.9494 0
M  V30 22 C -5.7999 0.9121 1.4479 0
M  V30 23 C -5.5108 1.9710 2.2798 0
M  V30 24 C -4.1840 2.2508 2.6294 0
M  V30 25 C -3.1535 1.4482 2.1265 0
M  V30 26 C -3.4424 0.3876 1.2982 0
M  V30 27 H -6.8232 0.6954 1.1798 0
M  V30 28 H -6.3058 2.5898 2.6685 0
M  V30 29 H -2.1341 1.6610 2.4057 0
M  V30 30 H -2.6509 -0.2368 0.9151 0
M  V30 31 C -3.8996 3.3147 3.5060 0
M  V30 32 C -3.6540 4.2108 4.2819 0
M  V30 33 C -3.4351 5.2014 5.2558 0
M  V30 34 C -4.5019 5.6909 5.9894 0
M  V30 35 C -4.3060 6.6204 7.0151 0
M  V30 36 C -3.0466 7.0617 7.3383 0
M  V30 37 C -1.9334 6.6003 6.6133 0
M  V30 38 C -0.6094 7.0009 6.9035 0
M  V30 39 C 0.4240 6.5311 6.1465 0
M  V30 40 N 0.2248 5.7044 5.0902 0
M  V30 41 C -0.9928 5.2886 4.8028 0
M  V30 42 C -2.1205 5.6800 5.5410 0
M  V30 43 H -5.4988 5.3387 5.7724 0
M  V30 44 H -5.1615 6.9803 7.5661 0
M  V30 45 H -2.8967 7.7611 8.1458 0
M  V30 46 H -0.4289 7.6749 7.7255 0
M  V30 47 H 1.4571 6.8016 6.3577 0
M  V30 48 H -1.1057 4.6235 3.9494 0
M  V30 49 C -1.7418 1.9067 -4.7668 0
M  V30 50 C -2.0135 0.9538 -5.4609 0
M  V30 51 C -2.3612 -0.1831 -6.2153 0
M  V30 52 C -3.2375 -0.0946 -7.2827 0
M  V30 53 C -3.6292 -1.2368 -7.9907 0
M  V30 54 C -3.1719 -2.4798 -7.6353 0
M  V30 55 C -2.2693 -2.6119 -6.5585 0
M  V30 56 C -1.7953 -3.8620 -6.1170 0
M  V30 57 N -0.9486 -3.9874 -5.1167 0
M  V30 58 C -0.4645 -2.8833 -4.4941 0
M  V30 59 C -0.8835 -1.6265 -4.8251 0
M  V30 60 C -1.8321 -1.4545 -5.8535 0
M  V30 61 H -3.6310 0.8697 -7.5665 0
M  V30 62 H -4.3123 -1.1287 -8.8189 0
M  V30 63 H -3.4933 -3.3591 -8.1704 0
M  V30 64 H -2.1318 -4.7766 -6.5996 0
M  V30 65 H 0.2782 -3.0665 -3.7207 0
M  V30 66 H -0.5021 -0.7589 -4.3110 0
M  V30 67 C -1.4101 2.9972 -3.9398 0
M  V30 68 C -1.4988 4.3083 -4.4207 0
M  V30 69 C -1.1501 5.3668 -3.6111 0
M  V30 70 C -0.7103 5.1383 -2.3012 0
M  V30 71 C -0.6425 3.8277 -1.8147 0
M  V30 72 C -0.9846 2.7693 -2.6255 0
M  V30 73 H -1.8331 4.4849 -5.4322 0
M  V30 74 H -1.2086 6.3784 -3.9843 0
M  V30 75 H -0.3165 3.6552 -0.8017 0
M  V30 76 H -0.9305 1.7575 -2.2562 0
M  V30 77 C -0.3097 6.2265 -1.5033 0
M  V30 78 C 0.0732 7.1641 -0.8401 0
M  V30 79 C 0.5640 8.2938 -0.1616 0
M  V30 80 C 0.5187 9.5341 -0.7750 0
M  V30 81 C 1.0586 10.6656 -0.1566 0
M  V30 82 C 1.6677 10.5775 1.0708 0
M  V30 83 C 1.7320 9.3397 1.7352 0
M  V30 84 C 2.3603 9.1758 2.9906 0
M  V30 85 C 2.3746 7.9495 3.5884 0
M  V30 86 N 1.7759 6.8693 3.0287 0
M  V30 87 C 1.1974 6.9767 1.8489 0
M  V30 88 C 1.1562 8.1830 1.1328 0
M  V30 89 H 0.0665 9.6249 -1.7508 0
M  V30 90 H 1.0035 11.6163 -0.6645 0
M  V30 91 H 2.1019 11.4486 1.5357 0
M  V30 92 H 2.8270 10.0251 3.4633 0
M  V30 93 H 2.8691 7.7838 4.5438 0
M  V30 94 H 0.7330 6.0833 1.4368 0
M  V30 95 C 6.2071 0.2645 0.0244 0
M  V30 96 C 6.4324 1.1801 0.7825 0
M  V30 97 C 6.6542 2.2152 1.7106 0
M  V30 98 C 7.9070 2.4315 2.2573 0
M  V30 99 C 8.1098 3.4212 3.2262 0
M  V30 100 C 7.0695 4.1924 3.6772 0
M  V30 101 C 5.7780 4.0099 3.1379 0
M  V30 102 C 4.6604 4.7394 3.5862 0
M  V30 103 N 3.4561 4.5752 3.0806 0
M  V30 104 C 3.2615 3.7051 2.0579 0
M  V30 105 C 4.2723 2.9270 1.5708 0
M  V30 106 C 5.5645 3.0331 2.1240 0
M  V30 107 H 8.7375 1.8209 1.9371 0
M  V30 108 H 9.1013 3.5626 3.6281 0
M  V30 109 H 7.2266 4.9390 4.4391 0
M  V30 110 H 4.7676 5.4685 4.3859 0
M  V30 111 H 2.2525 3.6727 1.6530 0
M  V30 112 H 4.0998 2.2281 0.7681 0
M  V30 113 C 5.9150 -0.7942 -0.8571 0
M  V30 114 C 4.6059 -1.2822 -0.9484 0
M  V30 115 C 4.3073 -2.3055 -1.8194 0
M  V30 116 C 5.3086 -2.8596 -2.6250 0
M  V30 117 C 6.6210 -2.3812 -2.5225 0
M  V30 118 C 6.9216 -1.3617 -1.6463 0
M  V30 119 H 3.8370 -0.8497 -0.3282 0
M  V30 120 H 3.3007 -2.6845 -1.8902 0
M  V30 121 H 7.3950 -2.8133 -3.1391 0
M  V30 122 H 7.9327 -0.9899 -1.5714 0
M  V30 123 C 5.0078 -3.8670 -3.5608 0
M  V30 124 C 4.7512 -4.7027 -4.3983 0
M  V30 125 C 4.5224 -5.6206 -5.4388 0
M  V30 126 C 5.5808 -6.0414 -6.2257 0
M  V30 127 C 5.3776 -6.9004 -7.3098 0
M  V30 128 C 4.1182 -7.3378 -7.6386 0
M  V30 129 C 3.0131 -6.9419 -6.8643 0
M  V30 130 C 1.6894 -7.3403 -7.1586 0
M  V30 131 C 0.6631 -6.9325 -6.3574 0
M  V30 132 N 0.8697 -6.1696 -5.2559 0
M  V30 133 C 2.0875 -5.7604 -4.9593 0
M  V30 134 C 3.2083 -6.0935 -5.7355 0
M  V30 135 H 6.5772 -5.6924 -6.0020 0
M  V30 136 H 6.2270 -7.2087 -7.9000 0
M  V30 137 H 3.9625 -7.9836 -8.4884 0
M  V30 138 H 1.5033 -7.9626 -8.0194 0
M  V30 139 H -0.3701 -7.2025 -6.5684 0
M  V30 140 H 2.2056 -5.1472 -4.0684 0
M  V30 141 C 2.5826 -2.4648 4.7550 0
M  V30 142 C 2.8411 -1.5177 5.4622 0
M  V30 143 C 3.1793 -0.3888 6.2315 0
M  V30 144 C 3.9919 -0.4996 7.3468 0
M  V30 145 C 4.3751 0.6325 8.0750 0
M  V30 146 C 3.9760 1.8875 7.6924 0
M  V30 147 C 3.1433 2.0433 6.5637 0
M  V30 148 C 2.7382 3.3059 6.0902 0
M  V30 149 N 1.9610 3.4532 5.0382 0
M  V30 150 C 1.4816 2.3622 4.3889 0
M  V30 151 C 1.8370 1.0944 4.7500 0
M  V30 152 C 2.7123 0.8970 5.8371 0
M  V30 153 H 4.3393 -1.4742 7.6545 0
M  V30 154 H 5.0055 0.5069 8.9418 0
M  V30 155 H 4.2914 2.7585 8.2443 0
M  V30 156 H 3.0729 4.2117 6.5896 0
M  V30 157 H 0.8003 2.5677 3.5654 0
M  V30 158 H 1.4642 0.2361 4.2147 0
M  V30 159 C 2.2842 -3.5535 3.9139 0
M  V30 160 C 1.5562 -3.3482 2.7356 0
M  V30 161 C 1.2687 -4.4077 1.9054 0
M  V30 162 C 1.6987 -5.6983 2.2353 0
M  V30 163 C 2.4276 -5.9037 3.4131 0
M  V30 164 C 2.7185 -4.8430 4.2422 0
M  V30 165 H 1.2198 -2.3540 2.4875 0
M  V30 166 H 0.6993 -4.2551 1.0028 0
M  V30 167 H 2.7584 -6.8996 3.6678 0
M  V30 168 H 3.2793 -5.0018 5.1512 0
M  V30 169 C 1.3775 -6.7924 1.4100 0
M  V30 170 C 1.0756 -7.7349 0.7131 0
M  V30 171 C 0.6749 -8.8738 -0.0081 0
M  V30 172 C 0.7976 -10.1278 0.5648 0
M  V30 173 C 0.3392 -11.2711 -0.0966 0
M  V30 174 C -0.2641 -11.1820 -1.3269 0
M  V30 175 C -0.4011 -9.9300 -1.9526 0
M  V30 176 C -1.0257 -9.7653 -3.2097 0
M  V30 177 C -1.1069 -8.5242 -3.7708 0
M  V30 178 N -0.5764 -7.4283 -3.1736 0
M  V30 179 C -0.0076 -7.5370 -1.9891 0
M  V30 180 C 0.0938 -8.7594 -1.3071 0
M  V30 181 H 1.2436 -10.2209 1.5431 0
M  V30 182 H 0.4518 -12.2326 0.3807 0
M  V30 183 H -0.6376 -12.0636 -1.8238 0
M  V30 184 H -1.4358 -10.6259 -3.7136 0
M  V30 185 H -1.6015 -8.3594 -4.7262 0
M  V30 186 H 0.4011 -6.6316 -1.5457 0
M  V30 END ATOM
M  V30 BEGIN BOND
M  V30 1 3 3 4
M  V30 2 1 4 5
M  V30 3 2 5 6
M  V30 4 1 6 7
M  V30 5 2 7 8
M  V30 6 1 8 9
M  V30 7 2 9 10
M  V30 8 1 10 11
M  V30 9 2 11 12
M  V30 10 1 12 13
M  V30 11 2 13 14
M  V30 12 1 14 5
M  V30 13 1 14 9
M  V30 14 1 6 15
M  V30 15 1 7 16
M  V30 16 1 8 17
M  V30 17 1 10 18
M  V30 18 1 12 19
M  V30 19 1 13 20
M  V30 20 2 21 22
M  V30 21 1 22 23
M  V30 22 2 23 24
M  V30 23 1 24 25
M  V30 24 2 25 26
M  V30 25 1 26 21
M  V30 26 1 22 27
M  V30 27 1 23 28
M  V30 28 1 25 29
M  V30 29 1 26 30
M  V30 30 3 31 32
M  V30 31 1 32 33
M  V30 32 2 33 34
M  V30 33 1 34 35
M  V30 34 2 35 36
M  V30 35 1 36 37
M  V30 36 2 37 38
M  V30 37 1 38 39
M  V30 38 2 39 40
M  V30 39 1 40 41
M  V30 40 2 41 42
M  V30 41 1 42 33
M  V30 42 1 42 37
M  V30 43 1 34 43
M  V30 44 1 35 44
M  V30 45 1 36 45
M  V30 46 1 38 46
M  V30 47 1 39 47
M  V30 48 1 41 48
M  V30 49 1 3 21
M  V30 50 1 24 31
M  V30 51 3 49 50
M  V30 52 1 50 51
M  V30 53 2 51 52
M  V30 54 1 52 53
M  V30 55 2 53 54
M  V30 56 1 54 55
M  V30 57 2 55 56
M  V30 58 1 56 57
M  V30 59 2 57 58
M  V30 60 1 58 59
M  V30 61 2 59 60
M  V30 62 1 60 51
M  V30 63 1 60 55
M  V30 64 1 52 61
M  V30 65 1 53 62
M  V30 66 1 54 63
M  V30 67 1 56 64
M  V30 68 1 58 65
M  V30 69 1 59 66
M  V30 70 2 67 68
M  V30 71 1 68 69
M  V30 72 2 69 70
M  V30 73 1 70 71
M  V30 74 2 71 72
M  V30 75 1 72 67
M  V30 76 1 68 73
M  V30 77 1 69 74
M  V30 78 1 71 75
M  V30 79 1 72 76
M  V30 80 3 77 78
M  V30 81 1 78 79
M  V30 82 2 79 80
M  V30 83 1 80 81
M  V30 84 2 81 82
M  V30 85 1 82 83
M  V30 86 2 83 84
M  V30 87 1 84 85
M  V30 88 2 85 86
M  V30 89 1 86 87
M  V30 90 2 87 88
M  V30 91 1 88 79
M  V30 92 1 88 83
M  V30 93 1 80 89
M  V30 94 1 81 90
M  V30 95 1 82 91
M  V30 96 1 84 92
M  V30 97 1 85 93
M  V30 98 1 87 94
M  V30 99 1 49 67
M  V30 100 1 70 77
M  V30 101 3 95 96
M  V30 102 1 96 97
M  V30 103 2 97 98
M  V30 104 1 98 99
M  V30 105 2 99 100
M  V30 106 1 100 101
M  V30 107 2 101 102
M  V30 108 1 102 103
M  V30 109 2 103 104
M  V30 110 1 104 105
M  V30 111 2 105 106
M  V30 112 1 106 97
M  V30 113 1 106 101
M  V30 114 1 98 107
M  V30 115 1 99 108
M  V30 116 1 100 109
M  V30 117 1 102 110
M  V30 118 1 104 111
M  V30 119 1 105 112
M  V30 120 2 113 114
M  V30 121 1 114 115
M  V30 122 2 115 116
M  V30 123 1 116 117
M  V30 124 2 117 118
M  V30 125 1 118 113
M  V30 126 1 114 119
M  V30 127 1 115 120
M  V30 128 1 117 121
M  V30 129 1 118 122
M  V30 130 3 123 124
M  V30 131 1 124 125
M  V30 132 2 125 126
M  V30 133 1 126 127
M  V30 134 2 127 128
M  V30 135 1 128 129
M  V30 136 2 129 130
M  V30 137 1 130 131
M  V30 138 2 131 132
M  V30 139 1 132 133
M  V30 140 2 133 134
M  V30 141 1 134 125
M  V30 142 1 134 129
M  V30 143 1 126 135
M  V30 144 1 127 136
M  V30 145 1 128 137
M  V30 146 1 130 138
M  V30 147 1 131 139
M  V30 148 1 133 140
M  V30 149 1 95 113
M  V30 150 1 116 123
M  V30 151 3 141 142
M  V30 152 1 142 143
M  V30 153 2 143 144
M  V30 154 1 144 145
M  V30 155 2 145 146
M  V30 156 1 146 147
M  V30 157 2 147 148
M  V30 158 1 148 149
M  V30 159 2 149 150
M  V30 160 1 150 151
M  V30 161 2 151 152
M  V30 162 1 152 143
M  V30 163 1 152 147
M  V30 164 1 144 153
M  V30 165 1 145 154
M  V30 166 1 146 155
M  V30 167 1 148 156
M  V30 168 1 150 157
M  V30 169 1 151 158
M  V30 170 2 159 160
M  V30 171 1 160 161
M  V30 172 2 161 162
M  V30 173 1 162 163
M  V30 174 2 163 164
M  V30 175 1 164 159
M  V30 176 1 160 165
M  V30 177 1 161 166
M  V30 178 1 163 167
M  V30 179 1 164 168
M  V30 180 3 169 170
M  V30 181 1 170 171
M  V30 182 2 171 172
M  V30 183 1 172 173
M  V30 184 2 173 174
M  V30 185 1 174 175
M  V30 186 2 175 176
M  V30 187 1 176 177
M  V30 188 2 177 178
M  V30 189 1 178 179
M  V30 190 2 179 180
M  V30 191 1 180 171
M  V30 192 1 180 175
M  V30 193 1 172 181
M  V30 194 1 173 182
M  V30 195 1 174 183
M  V30 196 1 176 184
M  V30 197 1 177 185
M  V30 198 1 179 186
M  V30 199 1 141 159
M  V30 200 1 162 169
M  V30 201 9 40 1
M  V30 202 9 86 1
M  V30 203 9 103 1
M  V30 204 9 149 1
M  V30 205 9 11 2
M  V30 206 9 57 2
M  V30 207 9 132 2
M  V30 208 9 178 2
M  V30 END BOND
M  V30 END CTAB
M  END

$$$$
