
     RDKit          3D

  0  0  0  0  0  0  0  0  0  0999 V3000
M  V30 BEGIN CTAB
M  V30 COUNTS 186 208 0 0 0
M  V30 BEGIN ATOM
M  V30 1 Pd -0.0442 -5.0991 4.7107 0 CHG=2
M  V30 2 Pd 0.0768 5.0626 -4.7498 0 CHG=2
M  V30 3 C 1.9301 4.5516 2.7171 0
M  V30 4 C 1.9769 5.4315 1.8880 0
M  V30 5 C 2.0686 6.4123 0.8830 0
M  V30 6 C 2.7878 7.5780 1.0834 0
M  V30 7 C 2.9268 8.5243 0.0617 0
M  V30 8 C 2.3742 8.3145 -1.1759 0
M  V30 9 C 1.6295 7.1410 -1.4199 0
M  V30 10 C 1.0776 6.8429 -2.6806 0
M  V30 11 N 0.3824 5.7491 -2.9101 0
M  V30 12 C 0.1356 4.8761 -1.9009 0
M  V30 13 C 0.6490 5.0576 -0.6489 0
M  V30 14 C 1.4456 6.1884 -0.3775 0
M  V30 15 H 3.2528 7.7555 2.0413 0
M  V30 16 H 3.4907 9.4236 0.2562 0
M  V30 17 H 2.5021 9.0367 -1.9663 0
M  V30 18 H 1.2237 7.5219 -3.5171 0
M  V30 19 H -0.4943 4.0268 -2.1584 0
M  V30 20 H 0.4613 4.3472 0.1399 0
M  V30 21 C 1.8767 3.5123 3.6653 0
M  V30 22 C 2.4701 3.6690 4.9232 0
M  V30 23 C 2.4185 2.6472 5.8454 0
M  V30 24 C 1.7751 1.4443 5.5291 0
M  V30 25 C 1.1862 1.2867 4.2692 0
M  V30 26 C 1.2344 2.3090 3.3489 0
M  V30 27 H 2.9648 4.5972 5.1679 0
M  V30 28 H 2.8721 2.7689 6.8177 0
M  V30 29 H 0.6835 0.3628 4.0329 0
M  V30 30 H 0.7751 2.1930 2.3800 0
M  V30 31 C 1.6984 0.4172 6.4884 0
M  V30 32 C 1.6059 -0.4570 7.3206 0
M  V30 33 C 1.4484 -1.3990 8.3529 0
M  V30 34 C 1.7101 -1.0336 9.6620 0
M  V30 35 C 1.4910 -1.9241 10.7171 0
M  V30 36 C 0.9913 -3.1824 10.4881 0
M  V30 37 C 0.7204 -3.6016 9.1733 0
M  V30 38 C 0.1906 -4.8760 8.8685 0
M  V30 39 C -0.0293 -5.2272 7.5685 0
M  V30 40 N 0.2734 -4.3993 6.5381 0
M  V30 41 C 0.7462 -3.1931 6.7826 0
M  V30 42 C 0.9726 -2.7180 8.0837 0
M  V30 43 H 2.0778 -0.0404 9.8703 0
M  V30 44 H 1.7066 -1.6047 11.7253 0
M  V30 45 H 0.8013 -3.8586 11.3067 0
M  V30 46 H -0.0378 -5.5595 9.6705 0
M  V30 47 H -0.4577 -6.1915 7.3010 0
M  V30 48 H 0.9716 -2.5612 5.9262 0
M  V30 49 C 5.4900 0.7870 -1.2939 0
M  V30 50 C 5.5047 1.7083 -2.0779 0
M  V30 51 C 5.4829 2.8157 -2.9471 0
M  V30 52 C 6.6347 3.5296 -3.2277 0
M  V30 53 C 6.5975 4.6672 -4.0425 0
M  V30 54 C 5.4157 5.1197 -4.5706 0
M  V30 55 C 4.2200 4.4145 -4.3163 0
M  V30 56 C 2.9687 4.8489 -4.7935 0
M  V30 57 N 1.8528 4.1897 -4.5626 0
M  V30 58 C 1.8845 3.0202 -3.8753 0
M  V30 59 C 3.0416 2.5274 -3.3433 0
M  V30 60 C 4.2486 3.2338 -3.5207 0
M  V30 61 H 7.5738 3.2081 -2.8036 0
M  V30 62 H 7.5162 5.1970 -4.2411 0
M  V30 63 H 5.3889 6.0087 -5.1802 0
M  V30 64 H 2.8920 5.7663 -5.3724 0
M  V30 65 H 0.9320 2.5035 -3.7809 0
M  V30 66 H 3.0495 1.6047 -2.7856 0
M  V30 67 C 5.4422 -0.2866 -0.3838 0
M  V30 68 C 6.5894 -1.0396 -0.1100 0
M  V30 69 C 6.5268 -2.1022 0.7644 0
M  V30 70 C 5.3171 -2.4318 1.3886 0
M  V30 71 C 4.1755 -1.6646 1.1300 0
M  V30 72 C 4.2362 -0.6068 0.2514 0
M  V30 73 H 7.5212 -0.7889 -0.5948 0
M  V30 74 H 7.4091 -2.6901 0.9688 0
M  V30 75 H 3.2487 -1.9120 1.6220 0
M  V30 76 H 3.3583 -0.0149 0.0463 0
M  V30 77 C 5.2576 -3.5509 2.2404 0
M  V30 78 C 5.2064 -4.5397 2.9368 0
M  V30 79 C 5.2130 -5.7380 3.6727 0
M  V30 80 C 6.3882 -6.4593 3.7958 0
M  V30 81 C 6.4151 -7.6876 4.4630 0
M  V30 82 C 5.2716 -8.2252 5.0003 0
M  V30 83 C 4.0552 -7.5258 4.9054 0
M  V30 84 C 2.8392 -8.0304 5.4197 0
M  V30 85 C 1.6964 -7.2938 5.3075 0
M  V30 86 N 1.6861 -6.0639 4.7366 0
M  V30 87 C 2.7958 -5.5674 4.2265 0
M  V30 88 C 4.0181 -6.2564 4.2577 0
M  V30 89 H 7.2958 -6.0692 3.3611 0
M  V30 90 H 7.3501 -8.2208 4.5406 0
M  V30 91 H 5.2917 -9.1830 5.4960 0
M  V30 92 H 2.8270 -8.9983 5.8945 0
M  V30 93 H 0.7394 -7.6624 5.6723 0
M  V30 94 H 2.7399 -4.5790 3.7752 0
M  V30 95 C -2.1672 -4.5298 -2.6851 0
M  V30 96 C -2.2273 -5.3999 -1.8467 0
M  V30 97 C -2.3287 -6.3682 -0.8298 0
M  V30 98 C -3.1107 -7.4984 -0.9915 0
M  V30 99 C -3.2586 -8.4274 0.0451 0
M  V30 100 C -2.6493 -8.2353 1.2584 0
M  V30 101 C -1.8353 -7.1002 1.4608 0
M  V30 102 C -1.2156 -6.8232 2.6943 0
M  V30 103 N -0.4510 -5.7684 2.8837 0
M  V30 104 C -0.1990 -4.9188 1.8562 0
M  V30 105 C -0.7753 -5.0803 0.6289 0
M  V30 106 C -1.6447 -6.1665 0.4027 0
M  V30 107 H -3.6210 -7.6600 -1.9289 0
M  V30 108 H -3.8746 -9.2982 -0.1185 0
M  V30 109 H -2.7835 -8.9429 2.0609 0
M  V30 110 H -1.3640 -7.4871 3.5427 0
M  V30 111 H 0.4920 -4.1077 2.0748 0
M  V30 112 H -0.5783 -4.3883 -0.1741 0
M  V30 113 C -2.0808 -3.4999 -3.6418 0
M  V30 114 C -1.7437 -2.2022 -3.2382 0
M  V30 115 C -1.6403 -1.1925 -4.1680 0
M  V30 116 C -1.8639 -1.4580 -5.5239 0
M  V30 117 C -2.2158 -2.7529 -5.9253 0
M  V30 118 C -2.3258 -3.7622 -4.9943 0
M  V30 119 H -1.5688 -2.0033 -2.1928 0
M  V30 120 H -1.3829 -0.1922 -3.8598 0
M  V30 121 H -2.3950 -2.9562 -6.9705 0
M  V30 122 H -2.5923 -4.7615 -5.3050 0
M  V30 123 C -1.7065 -0.4493 -6.4929 0
M  V30 124 C -1.5316 0.4000 -7.3376 0
M  V30 125 C -1.2813 1.3088 -8.3812 0
M  V30 126 C -1.4624 0.9102 -9.6945 0
M  V30 127 C -1.1586 1.7661 -10.7573 0
M  V30 128 C -0.6527 3.0223 -10.5306 0
M  V30 129 C -0.4578 3.4734 -9.2131 0
M  V30 130 C 0.0761 4.7467 -8.9104 0
M  V30 131 C 0.2258 5.1287 -7.6092 0
M  V30 132 N -0.1487 4.3324 -6.5779 0
M  V30 133 C -0.6316 3.1295 -6.8187 0
M  V30 134 C -0.7946 2.6250 -8.1182 0
M  V30 135 H -1.8363 -0.0814 -9.8991 0
M  V30 136 H -1.3142 1.4214 -11.7682 0
M  V30 137 H -0.3996 3.6722 -11.3535 0
M  V30 138 H 0.3638 5.4045 -9.7150 0
M  V30 139 H 0.6545 6.0928 -7.3412 0
M  V30 140 H -0.9157 2.5239 -5.9606 0
M  V30 141 C -5.4145 -0.6244 1.4583 0
M  V30 142 C -5.4358 -1.5337 2.2561 0
M  V30 143 C -5.4247 -2.6307 3.1377 0
M  V30 144 C -6.5944 -3.2888 3.4767 0
M  V30 145 C -6.5731 -4.4158 4.3062 0
M  V30 146 C -5.3910 -4.9157 4.7894 0
M  V30 147 C -4.1766 -4.2713 4.4709 0
M  V30 148 C -2.9262 -4.7607 4.8943 0
M  V30 149 N -1.7924 -4.1607 4.5990 0
M  V30 150 C -1.8005 -3.0002 3.8955 0
M  V30 151 C -2.9568 -2.4571 3.4139 0
M  V30 152 C -4.1867 -3.0999 3.6614 0
M  V30 153 H -7.5358 -2.9294 3.0896 0
M  V30 154 H -7.5055 -4.9001 4.5528 0
M  V30 155 H -5.3780 -5.7970 5.4106 0
M  V30 156 H -2.8653 -5.6729 5.4826 0
M  V30 157 H -0.8274 -2.5374 3.7422 0
M  V30 158 H -2.9485 -1.5443 2.8404 0
M  V30 159 C -5.3705 0.4253 0.5212 0
M  V30 160 C -4.1384 0.9659 0.1336 0
M  V30 161 C -4.0890 1.9867 -0.7883 0
M  V30 162 C -5.2703 2.4941 -1.3417 0
M  V30 163 C -6.5026 1.9529 -0.9551 0
M  V30 164 C -6.5520 0.9290 -0.0353 0
M  V30 165 H -3.2302 0.5780 0.5670 0
M  V30 166 H -3.1429 2.4125 -1.0812 0
M  V30 167 H -7.4138 2.3453 -1.3815 0
M  V30 168 H -7.5024 0.5129 0.2640 0
M  V30 169 C -5.2304 3.5622 -2.2578 0
M  V30 170 C -5.1944 4.4990 -3.0233 0
M  V30 171 C -5.2168 5.6426 -3.8416 0
M  V30 172 C -6.4066 6.3212 -4.0409 0
M  V30 173 C -6.4469 7.5028 -4.7872 0
M  V30 174 C -5.3034 8.0359 -5.3292 0
M  V30 175 C -4.0731 7.3756 -5.1617 0
M  V30 176 C -2.8571 7.8771 -5.6789 0
M  V30 177 C -1.7010 7.1752 -5.4983 0
M  V30 178 N -1.6771 5.9803 -4.8574 0
M  V30 179 C -2.7865 5.4911 -4.3395 0
M  V30 180 C -4.0216 6.1510 -4.4342 0
M  V30 181 H -7.3145 5.9368 -3.6020 0
M  V30 182 H -7.3928 8.0049 -4.9220 0
M  V30 183 H -5.3346 8.9601 -5.8846 0
M  V30 184 H -2.8552 8.8150 -6.2110 0
M  V30 185 H -0.7445 7.5445 -5.8634 0
M  V30 186 H -2.7203 4.5318 -3.8309 0
M  V30 END ATOM
M  V30 BEGIN BOND
M  V30 1 3 3 4
M  V30 2 1 4 5
M  V30 3 2 5 6
M  V30 4 1 6 7
M  V30 5 2 7 8
M  V30 6 1 8 9
M  V30 7 2 9 10
M  V30 8 1 10 11
M  V30 9 2 11 12
M  V30 10 1 12 13
M  V30 11 2 13 14
M  V30 12 1 14 5
M  V30 13 1 14 9
M  V30 14 1 6 15
M  V30 15 1 7 16
M  V30 16 1 8 17
M  V30 17 1 10 18
M  V30 18 1 12 19
M  V30 19 1 13 20
M  V30 20 2 21 22
M  V30 21 1 22 23
M  V30 22 2 23 24
M  V30 23 1 24 25
M  V30 24 2 25 26
M  V30 25 1 26 21
M  V30 26 1 22 27
M  V30 27 1 23 28
M  V30 28 1 25 29
M  V30 29 1 26 30
M  V30 30 3 31 32
M  V30 31 1 32 33
M  V30 32 2 33 34
M  V30 33 1 34 35
M  V30 34 2 35 36
M  V30 35 1 36 37
M  V30 36 2 37 38
M  V30 37 1 38 39
M  V30 38 2 39 40
M  V30 39 1 40 41
M  V30 40 2 41 42
M  V30 41 1 42 33
M  V30 42 1 42 37
M  V30 43 1 34 43
M  V30 44 1 35 44
M  V30 45 1 36 45
M  V30 46 1 38 46
M  V30 47 1 39 47
M  V30 48 1 41 48
M  V30 49 1 3 21
M  V30 50 1 24 31
M  V30 51 3 49 50
M  V30 52 1 50 51
M  V30 53 2 51 52
M  V30 54 1 52 53
M  V30 55 2 53 54
M  V30 56 1 54 55
M  V30 57 2 55 56
M  V30 58 1 56 57
M  V30 59 2 57 58
M  V30 60 1 58 59
M  V30 61 2 59 60
M  V30 62 1 60 51
M  V30 63 1 60 55
M  V30 64 1 52 61
M  V30 65 1 53 62
M  V30 66 1 54 63
M  V30 67 1 56 64
M  V30 68 1 58 65
M  V30 69 1 59 66
M  V30 70 2 67 68
M  V30 71 1 68 69
M  V30 72 2 69 70
M  V30 73 1 70 71
M  V30 74 2 71 72
M  V30 75 1 72 67
M  V30 76 1 68 73
M  V30 77 1 69 74
M  V30 78 1 71 75
M  V30 79 1 72 76
M  V30 80 3 77 78
M  V30 81 1 78 79
M  V30 82 2 79 80
M  V30 83 1 80 81
M  V30 84 2 81 82
M  V30 85 1 82 83
M  V30 86 2 83 84
M  V30 87 1 84 85
M  V30 88 2 85 86
M  V30 89 1 86 87
M  V30 90 2 87 88
M  V30 91 1 88 79
M  V30 92 1 88 83
M  V30 93 1 80 89
M  V30 94 1 81 90
M  V30 95 1 82 91
M  V30 96 1 84 92
M  V30 97 1 85 93
M  V30 98 1 87 94
M  V30 99 1 49 67
M  V30 100 1 70 77
M  V30 101 3 95 96
M  V30 102 1 96 97
M  V30 103 2 97 98
M  V30 104 1 98 99
M  V30 105 2 99 100
M  V30 106 1 100 101
M  V30 107 2 101 102
M  V30 108 1 102 103
M  V30 109 2 103 104
M  V30 110 1 104 105
M  V30 111 2 105 106
M  V30 112 1 106 97
M  V30 113 1 106 101
M  V30 114 1 98 107
M  V30 115 1 99 108
M  V30 116 1 100 109
M  V30 117 1 102 110
M  V30 118 1 104 111
M  V30 119 1 105 112
M  V30 120 2 113 114
M  V30 121 1 114 115
M  V30 122 2 115 116
M  V30 123 1 116 117
M  V30 124 2 117 118
M  V30 125 1 118 113
M  V30 126 1 114 119
M  V30 127 1 115 120
M  V30 128 1 117 121
M  V30 129 1 118 122
M  V30 130 3 123 124
M  V30 131 1 124 125
M  V30 132 2 125 126
M  V30 133 1 126 127
M  V30 134 2 127 128
M  V30 135 1 128 129
M  V30 136 2 129 130
M  V30 137 1 130 131
M  V30 138 2 131 132
M  V30 139 1 132 133
M  V30 140 2 133 134
M  V30 141 1 134 125
M  V30 142 1 134 129
M  V30 143 1 126 135
M  V30 144 1 127 136
M  V30 145 1 128 137
M  V30 146 1 130 138
M  V30 147 1 131 139
M  V30 148 1 133 140
M  V30 149 1 95 113
M  V30 150 1 116 123
M  V30 151 3 141 142
M  V30 152 1 142 143
M  V30 153 2 143 144
M  V30 154 1 144 145
M  V30 155 2 145 146
M  V30 156 1 146 147
M  V30 157 2 147 148
M  V30 158 1 148 149
M  V30 159 2 149 150
M  V30 160 1 150 151
M  V30 161 2 151 152
M  V30 162 1 152 143
M  V30 163 1 152 147
M  V30 164 1 144 153
M  V30 165 1 145 154
M  V30 166 1 146 155
M  V30 167 1 148 156
M  V30 168 1 150 157
M  V30 169 1 151 158
M  V30 170 2 159 160
M  V30 171 1 160 161
M  V30 172 2 161 162
M  V30 173 1 162 163
M  V30 174 2 163 164
M  V30 175 1 164 159
M  V30 176 1 160 165
M  V30 177 1 161 166
M  V30 178 1 163 167
M  V30 179 1 164 168
M  V30 180 3 169 170
M  V30 181 1 170 171
M  V30 182 2 171 172
M  V30 183 1 172 173
M  V30 184 2 173 174
M  V30 185 1 174 175
M  V30 186 2 175 176
M  V30 187 1 176 177
M  V30 188 2 177 178
M  V30 189 1 178 179
M  V30 190 2 179 180
M  V30 191 1 180 171
M  V30 192 1 180 175
M  V30 193 1 172 181
M  V30 194 1 173 182
M  V30 195 1 174 183
M  V30 196 1 176 184
M  V30 197 1 177 185
M  V30 198 1 179 186
M  V30 199 1 141 159
M  V30 200 1 162 169
M  V30 201 9 40 1
M  V30 202 9 86 1
M  V30 203 9 103 1
M  V30 204 9 149 1
M  V30 205 9 11 2
M  V30 206 9 57 2
M  V30 207 9 132 2
M  V30 208 9 178 2
M  V30 END BOND
M  V30 END CTAB
M  END

$$$$
