
     RDKit          3D

  0  0  0  0  0  0  0  0  0  0999 V3000
M  V30 BEGIN CTAB
M  V30 COUNTS 186 208 0 0 0
M  V30 BEGIN ATOM
M  V30 1 Pd -2.2256 6.4981 -0.4186 0 CHG=2
M  V30 2 Pd 3.5267 -6.1035 0.5238 0 CHG=2
M  V30 3 C -3.6829 -3.4407 -0.0946 0
M  V30 4 C -3.1846 -4.5423 -0.0492 0
M  V30 5 C -2.5642 -5.8054 -0.0499 0
M  V30 6 C -3.2668 -6.9481 -0.3919 0
M  V30 7 C -2.6326 -8.1944 -0.4495 0
M  V30 8 C -1.2912 -8.3175 -0.1914 0
M  V30 9 C -0.5398 -7.1776 0.1653 0
M  V30 10 C 0.8485 -7.2274 0.3954 0
M  V30 11 N 1.5510 -6.1654 0.7285 0
M  V30 12 C 0.9337 -4.9699 0.9056 0
M  V30 13 C -0.4031 -4.8084 0.6798 0
M  V30 14 C -1.1802 -5.9097 0.2672 0
M  V30 15 H -4.3186 -6.8741 -0.6231 0
M  V30 16 H -3.2137 -9.0641 -0.7151 0
M  V30 17 H -0.8028 -9.2765 -0.2579 0
M  V30 18 H 1.3876 -8.1659 0.2924 0
M  V30 19 H 1.5747 -4.1550 1.2362 0
M  V30 20 H -0.8787 -3.8492 0.8058 0
M  V30 21 C -4.2431 -2.1506 -0.1553 0
M  V30 22 C -5.5979 -1.9796 -0.4627 0
M  V30 23 C -6.1397 -0.7148 -0.5250 0
M  V30 24 C -5.3380 0.4078 -0.2845 0
M  V30 25 C -3.9822 0.2362 0.0178 0
M  V30 26 C -3.4414 -1.0278 0.0839 0
M  V30 27 H -6.2167 -2.8453 -0.6463 0
M  V30 28 H -7.1858 -0.5823 -0.7575 0
M  V30 29 H -3.3704 1.1025 0.2117 0
M  V30 30 H -2.3988 -1.1633 0.3239 0
M  V30 31 C -5.9062 1.6951 -0.3181 0
M  V30 32 C -6.3978 2.8013 -0.3181 0
M  V30 33 C -7.0384 4.0508 -0.2399 0
M  V30 34 C -8.4193 4.1114 -0.1687 0
M  V30 35 C -9.0808 5.3333 -0.0147 0
M  V30 36 C -8.3791 6.5089 0.0897 0
M  V30 37 C -6.9750 6.4977 0.0119 0
M  V30 38 C -6.1910 7.6680 0.1276 0
M  V30 39 C -4.8330 7.5895 0.0218 0
M  V30 40 N -4.1968 6.4174 -0.2238 0
M  V30 41 C -4.8910 5.3001 -0.3136 0
M  V30 42 C -6.2878 5.2640 -0.1812 0
M  V30 43 H -8.9921 3.1980 -0.2209 0
M  V30 44 H -10.1589 5.3424 0.0370 0
M  V30 45 H -8.8917 7.4474 0.2320 0
M  V30 46 H -6.6766 8.6149 0.3016 0
M  V30 47 H -4.1990 8.4678 0.1291 0
M  V30 48 H -4.3393 4.3829 -0.5077 0
M  V30 49 C 0.2414 -2.0371 -5.1507 0
M  V30 50 C 0.6939 -3.1552 -5.0562 0
M  V30 51 C 1.1799 -4.4664 -4.8926 0
M  V30 52 C 0.9466 -5.4416 -5.8464 0
M  V30 53 C 1.3774 -6.7591 -5.6509 0
M  V30 54 C 2.0256 -7.1271 -4.5000 0
M  V30 55 C 2.2914 -6.1604 -3.5067 0
M  V30 56 C 2.9150 -6.4811 -2.2858 0
M  V30 57 N 3.1693 -5.5801 -1.3603 0
M  V30 58 C 2.8671 -4.2758 -1.5807 0
M  V30 59 C 2.2331 -3.8646 -2.7181 0
M  V30 60 C 1.8931 -4.8082 -3.7086 0
M  V30 61 H 0.4164 -5.1826 -6.7502 0
M  V30 62 H 1.1796 -7.4919 -6.4178 0
M  V30 63 H 2.3365 -8.1479 -4.3448 0
M  V30 64 H 3.2016 -7.5078 -2.0706 0
M  V30 65 H 3.1656 -3.5842 -0.7960 0
M  V30 66 H 1.9846 -2.8269 -2.8731 0
M  V30 67 C -0.2750 -0.7295 -5.2322 0
M  V30 68 C -0.5921 -0.1653 -6.4729 0
M  V30 69 C -1.0750 1.1228 -6.5436 0
M  V30 70 C -1.2570 1.8732 -5.3751 0
M  V30 71 C -0.9596 1.2999 -4.1334 0
M  V30 72 C -0.4708 0.0152 -4.0628 0
M  V30 73 H -0.4473 -0.7416 -7.3745 0
M  V30 74 H -1.3107 1.5628 -7.5011 0
M  V30 75 H -1.1132 1.8748 -3.2345 0
M  V30 76 H -0.2368 -0.4295 -3.1086 0
M  V30 77 C -1.7035 3.2049 -5.4675 0
M  V30 78 C -2.0463 4.3622 -5.5600 0
M  V30 79 C -2.3788 5.7145 -5.7558 0
M  V30 80 C -2.5728 6.1927 -7.0404 0
M  V30 81 C -2.8381 7.5450 -7.2751 0
M  V30 82 C -2.8955 8.4443 -6.2390 0
M  V30 83 C -2.7112 8.0037 -4.9163 0
M  V30 84 C -2.7390 8.8787 -3.8066 0
M  V30 85 C -2.5676 8.3839 -2.5468 0
M  V30 86 N -2.3958 7.0597 -2.3110 0
M  V30 87 C -2.3432 6.2142 -3.3212 0
M  V30 88 C -2.4733 6.6222 -4.6577 0
M  V30 89 H -2.5090 5.5098 -7.8739 0
M  V30 90 H -2.9855 7.8813 -8.2900 0
M  V30 91 H -3.0796 9.4906 -6.4255 0
M  V30 92 H -2.8928 9.9335 -3.9685 0
M  V30 93 H -2.5609 9.0326 -1.6727 0
M  V30 94 H -2.2004 5.1618 -3.0852 0
M  V30 95 C 4.9680 3.8582 0.4834 0
M  V30 96 C 4.4615 4.9565 0.4547 0
M  V30 97 C 3.8289 6.2141 0.4700 0
M  V30 98 C 4.5009 7.3495 0.8875 0
M  V30 99 C 3.8501 8.5867 0.9607 0
M  V30 100 C 2.5223 8.7068 0.6399 0
M  V30 101 C 1.8034 7.5745 0.2002 0
M  V30 102 C 0.4297 7.6214 -0.1045 0
M  V30 103 N -0.2416 6.5681 -0.5206 0
M  V30 104 C 0.3982 5.3869 -0.7119 0
M  V30 105 C 1.7218 5.2275 -0.4169 0
M  V30 106 C 2.4622 6.3174 0.0842 0
M  V30 107 H 5.5403 7.2765 1.1693 0
M  V30 108 H 4.4071 9.4508 1.2884 0
M  V30 109 H 2.0200 9.6576 0.7183 0
M  V30 110 H -0.1243 8.5505 0.0067 0
M  V30 111 H -0.2109 4.5820 -1.1173 0
M  V30 112 H 2.2137 4.2787 -0.5591 0
M  V30 113 C 5.5306 2.5674 0.5088 0
M  V30 114 C 4.6963 1.4466 0.5991 0
M  V30 115 C 5.2359 0.1803 0.6078 0
M  V30 116 C 6.6215 0.0044 0.5186 0
M  V30 117 C 7.4566 1.1263 0.4434 0
M  V30 118 C 6.9175 2.3939 0.4414 0
M  V30 119 H 3.6290 1.5870 0.6640 0
M  V30 120 H 4.5960 -0.6842 0.6792 0
M  V30 121 H 8.5261 0.9908 0.3815 0
M  V30 122 H 7.5617 3.2583 0.3783 0
M  V30 123 C 7.1842 -1.2848 0.4689 0
M  V30 124 C 7.6741 -2.3884 0.3820 0
M  V30 125 C 8.3120 -3.6291 0.2051 0
M  V30 126 C 9.6865 -3.6762 0.0478 0
M  V30 127 C 10.3443 -4.8852 -0.1970 0
M  V30 128 C 9.6438 -6.0610 -0.3081 0
M  V30 129 C 8.2466 -6.0634 -0.1494 0
M  V30 130 C 7.4640 -7.2343 -0.2696 0
M  V30 131 C 6.1132 -7.1700 -0.0890 0
M  V30 132 N 5.4846 -6.0128 0.2334 0
M  V30 133 C 6.1769 -4.8954 0.3342 0
M  V30 134 C 7.5651 -4.8439 0.1343 0
M  V30 135 H 10.2569 -2.7619 0.1070 0
M  V30 136 H 11.4174 -4.8835 -0.3127 0
M  V30 137 H 10.1524 -6.9888 -0.5180 0
M  V30 138 H 7.9448 -8.1698 -0.5072 0
M  V30 139 H 5.4787 -8.0481 -0.1965 0
M  V30 140 H 5.6306 -3.9904 0.5913 0
M  V30 141 C 0.8030 2.3099 5.3022 0
M  V30 142 C 0.3360 3.4229 5.2195 0
M  V30 143 C -0.1619 4.7308 5.0709 0
M  V30 144 C 0.0055 5.6782 6.0664 0
M  V30 145 C -0.4379 6.9940 5.8914 0
M  V30 146 C -1.0308 7.3902 4.7200 0
M  V30 147 C -1.2243 6.4539 3.6820 0
M  V30 148 C -1.7819 6.8069 2.4383 0
M  V30 149 N -1.9638 5.9349 1.4692 0
M  V30 150 C -1.6499 4.6288 1.6620 0
M  V30 151 C -1.0774 4.1884 2.8205 0
M  V30 152 C -0.8150 5.1019 3.8615 0
M  V30 153 H 0.4911 5.3974 6.9887 0
M  V30 154 H -0.2944 7.7039 6.6914 0
M  V30 155 H -1.3514 8.4105 4.5819 0
M  V30 156 H -2.0748 7.8351 2.2410 0
M  V30 157 H -1.8835 3.9626 0.8336 0
M  V30 158 H -0.8154 3.1513 2.9549 0
M  V30 159 C 1.3523 1.0158 5.3765 0
M  V30 160 C 1.2486 0.1479 4.2826 0
M  V30 161 C 1.7911 -1.1154 4.3468 0
M  V30 162 C 2.4465 -1.5428 5.5074 0
M  V30 163 C 2.5512 -0.6747 6.6011 0
M  V30 164 C 2.0117 0.5909 6.5358 0
M  V30 165 H 0.7367 0.4771 3.3923 0
M  V30 166 H 1.7039 -1.7901 3.5105 0
M  V30 167 H 3.0561 -1.0050 7.4967 0
M  V30 168 H 2.0912 1.2596 7.3799 0
M  V30 169 C 2.9720 -2.8458 5.5940 0
M  V30 170 C 3.3976 -3.9759 5.6755 0
M  V30 171 C 3.8261 -5.3030 5.8579 0
M  V30 172 C 4.1065 -5.7651 7.1321 0
M  V30 173 C 4.4619 -7.0990 7.3537 0
M  V30 174 C 4.5249 -7.9956 6.3156 0
M  V30 175 C 4.2587 -7.5690 5.0024 0
M  V30 176 C 4.2900 -8.4421 3.8913 0
M  V30 177 C 4.0421 -7.9584 2.6398 0
M  V30 178 N 3.7921 -6.6451 2.4122 0
M  V30 179 C 3.7300 -5.8037 3.4253 0
M  V30 180 C 3.9304 -6.2041 4.7555 0
M  V30 181 H 4.0372 -5.0861 7.9680 0
M  V30 182 H 4.6738 -7.4240 8.3609 0
M  V30 183 H 4.7767 -9.0294 6.4936 0
M  V30 184 H 4.5080 -9.4868 4.0453 0
M  V30 185 H 4.0356 -8.6078 1.7663 0
M  V30 186 H 3.5232 -4.7604 3.1969 0
M  V30 END ATOM
M  V30 BEGIN BOND
M  V30 1 3 3 4
M  V30 2 1 4 5
M  V30 3 2 5 6
M  V30 4 1 6 7
M  V30 5 2 7 8
M  V30 6 1 8 9
M  V30 7 2 9 10
M  V30 8 1 10 11
M  V30 9 2 11 12
M  V30 10 1 12 13
M  V30 11 2 13 14
M  V30 12 1 14 5
M  V30 13 1 14 9
M  V30 14 1 6 15
M  V30 15 1 7 16
M  V30 16 1 8 17
M  V30 17 1 10 18
M  V30 18 1 12 19
M  V30 19 1 13 20
M  V30 20 2 21 22
M  V30 21 1 22 23
M  V30 22 2 23 24
M  V30 23 1 24 25
M  V30 24 2 25 26
M  V30 25 1 26 21
M  V30 26 1 22 27
M  V30 27 1 23 28
M  V30 28 1 25 29
M  V30 29 1 26 30
M  V30 30 3 31 32
M  V30 31 1 32 33
M  V30 32 2 33 34
M  V30 33 1 34 35
M  V30 34 2 35 36
M  V30 35 1 36 37
M  V30 36 2 37 38
M  V30 37 1 38 39
M  V30 38 2 39 40
M  V30 39 1 40 41
M  V30 40 2 41 42
M  V30 41 1 42 33
M  V30 42 1 42 37
M  V30 43 1 34 43
M  V30 44 1 35 44
M  V30 45 1 36 45
M  V30 46 1 38 46
M  V30 47 1 39 47
M  V30 48 1 41 48
M  V30 49 1 3 21
M  V30 50 1 24 31
M  V30 51 3 49 50
M  V30 52 1 50 51
M  V30 53 2 51 52
M  V30 54 1 52 53
M  V30 55 2 53 54
M  V30 56 1 54 55
M  V30 57 2 55 56
M  V30 58 1 56 57
M  V30 59 2 57 58
M  V30 60 1 58 59
M  V30 61 2 59 60
M  V30 62 1 60 51
M  V30 63 1 60 55
M  V30 64 1 52 61
M  V30 65 1 53 62
M  V30 66 1 54 63
M  V30 67 1 56 64
M  V30 68 1 58 65
M  V30 69 1 59 66
M  V30 70 2 67 68
M  V30 71 1 68 69
M  V30 72 2 69 70
M  V30 73 1 70 71
M  V30 74 2 71 72
M  V30 75 1 72 67
M  V30 76 1 68 73
M  V30 77 1 69 74
M  V30 78 1 71 75
M  V30 79 1 72 76
M  V30 80 3 77 78
M  V30 81 1 78 79
M  V30 82 2 79 80
M  V30 83 1 80 81
M  V30 84 2 81 82
M  V30 85 1 82 83
M  V30 86 2 83 84
M  V30 87 1 84 85
M  V30 88 2 85 86
M  V30 89 1 86 87
M  V30 90 2 87 88
M  V30 91 1 88 79
M  V30 92 1 88 83
M  V30 93 1 80 89
M  V30 94 1 81 90
M  V30 95 1 82 91
M  V30 96 1 84 92
M  V30 97 1 85 93
M  V30 98 1 87 94
M  V30 99 1 49 67
M  V30 100 1 70 77
M  V30 101 3 95 96
M  V30 102 1 96 97
M  V30 103 2 97 98
M  V30 104 1 98 99
M  V30 105 2 99 100
M  V30 106 1 100 101
M  V30 107 2 101 102
M  V30 108 1 102 103
M  V30 109 2 103 104
M  V30 110 1 104 105
M  V30 111 2 105 106
M  V30 112 1 106 97
M  V30 113 1 106 101
M  V30 114 1 98 107
M  V30 115 1 99 108
M  V30 116 1 100 109
M  V30 117 1 102 110
M  V30 118 1 104 111
M  V30 119 1 105 112
M  V30 120 2 113 114
M  V30 121 1 114 115
M  V30 122 2 115 116
M  V30 123 1 116 117
M  V30 124 2 117 118
M  V30 125 1 118 113
M  V30 126 1 114 119
M  V30 127 1 115 120
M  V30 128 1 117 121
M  V30 129 1 118 122
M  V30 130 3 123 124
M  V30 131 1 124 125
M  V30 132 2 125 126
M  V30 133 1 126 127
M  V30 134 2 127 128
M  V30 135 1 128 129
M  V30 136 2 129 130
M  V30 137 1 130 131
M  V30 138 2 131 132
M  V30 139 1 132 133
M  V30 140 2 133 134
M  V30 141 1 134 125
M  V30 142 1 134 129
M  V30 143 1 126 135
M  V30 144 1 127 136
M  V30 145 1 128 137
M  V30 146 1 130 138
M  V30 147 1 131 139
M  V30 148 1 133 140
M  V30 149 1 95 113
M  V30 150 1 116 123
M  V30 151 3 141 142
M  V30 152 1 142 143
M  V30 153 2 143 144
M  V30 154 1 144 145
M  V30 155 2 145 146
M  V30 156 1 146 147
M  V30 157 2 147 148
M  V30 158 1 148 149
M  V30 159 2 149 150
M  V30 160 1 150 151
M  V30 161 2 151 152
M  V30 162 1 152 143
M  V30 163 1 152 147
M  V30 164 1 144 153
M  V30 165 1 145 154
M  V30 166 1 146 155
M  V30 167 1 148 156
M  V30 168 1 150 157
M  V30 169 1 151 158
M  V30 170 2 159 160
M  V30 171 1 160 161
M  V30 172 2 161 162
M  V30 173 1 162 163
M  V30 174 2 163 164
M  V30 175 1 164 159
M  V30 176 1 160 165
M  V30 177 1 161 166
M  V30 178 1 163 167
M  V30 179 1 164 168
M  V30 180 3 169 170
M  V30 181 1 170 171
M  V30 182 2 171 172
M  V30 183 1 172 173
M  V30 184 2 173 174
M  V30 185 1 174 175
M  V30 186 2 175 176
M  V30 187 1 176 177
M  V30 188 2 177 178
M  V30 189 1 178 179
M  V30 190 2 179 180
M  V30 191 1 180 171
M  V30 192 1 180 175
M  V30 193 1 172 181
M  V30 194 1 173 182
M  V30 195 1 174 183
M  V30 196 1 176 184
M  V30 197 1 177 185
M  V30 198 1 179 186
M  V30 199 1 141 159
M  V30 200 1 162 169
M  V30 201 9 40 1
M  V30 202 9 86 1
M  V30 203 9 103 1
M  V30 204 9 149 1
M  V30 205 9 11 2
M  V30 206 9 57 2
M  V30 207 9 132 2
M  V30 208 9 178 2
M  V30 END BOND
M  V30 END CTAB
M  END

$$$$
