
     RDKit          3D

  0  0  0  0  0  0  0  0  0  0999 V3000
M  V30 BEGIN CTAB
M  V30 COUNTS 186 208 0 0 0
M  V30 BEGIN ATOM
M  V30 1 Pd -1.0336 5.4120 3.0092 0 CHG=2
M  V30 2 Pd 1.3001 -6.6703 -3.4212 0 CHG=2
M  V30 3 C 5.5960 -1.7861 0.7189 0
M  V30 4 C 5.7958 -2.8563 0.1911 0
M  V30 5 C 5.9739 -4.1267 -0.3876 0
M  V30 6 C 7.0909 -4.8931 -0.1029 0
M  V30 7 C 7.2365 -6.1802 -0.6328 0
M  V30 8 C 6.2663 -6.7297 -1.4314 0
M  V30 9 C 5.1141 -5.9795 -1.7495 0
M  V30 10 C 4.0602 -6.5022 -2.5233 0
M  V30 11 N 2.9850 -5.8040 -2.8216 0
M  V30 12 C 2.8786 -4.5132 -2.4164 0
M  V30 13 C 3.8311 -3.9210 -1.6379 0
M  V30 14 C 4.9714 -4.6535 -1.2504 0
M  V30 15 H 7.8577 -4.4925 0.5428 0
M  V30 16 H 8.1232 -6.7464 -0.3927 0
M  V30 17 H 6.3732 -7.7298 -1.8199 0
M  V30 18 H 4.1071 -7.5227 -2.8950 0
M  V30 19 H 1.9865 -3.9878 -2.7520 0
M  V30 20 H 3.7263 -2.9004 -1.3068 0
M  V30 21 C 5.3413 -0.5458 1.3343 0
M  V30 22 C 6.2861 0.0264 2.1940 0
M  V30 23 C 6.0298 1.2381 2.7968 0
M  V30 24 C 4.8214 1.9033 2.5560 0
M  V30 25 C 3.8751 1.3281 1.6999 0
M  V30 26 C 4.1326 0.1191 1.0946 0
M  V30 27 H 7.2188 -0.4856 2.3785 0
M  V30 28 H 6.7600 1.6824 3.4566 0
M  V30 29 H 2.9500 1.8479 1.5095 0
M  V30 30 H 3.4084 -0.3229 0.4288 0
M  V30 31 C 4.5806 3.1564 3.1500 0
M  V30 32 C 4.3824 4.2470 3.6365 0
M  V30 33 C 4.2447 5.5482 4.1518 0
M  V30 34 C 5.3509 6.2060 4.6612 0
M  V30 35 C 5.2612 7.5266 5.1111 0
M  V30 36 C 4.0766 8.2175 5.0437 0
M  V30 37 C 2.9234 7.5867 4.5437 0
M  V30 38 C 1.6771 8.2439 4.4319 0
M  V30 39 C 0.5919 7.5666 3.9574 0
M  V30 40 N 0.6557 6.2571 3.6109 0
M  V30 41 C 1.8058 5.6159 3.6777 0
M  V30 42 C 2.9902 6.2291 4.1146 0
M  V30 43 H 6.2999 5.6931 4.6993 0
M  V30 44 H 6.1447 8.0077 5.5023 0
M  V30 45 H 4.0165 9.2439 5.3701 0
M  V30 46 H 1.5973 9.2794 4.7218 0
M  V30 47 H -0.3763 8.0495 3.8370 0
M  V30 48 H 1.8115 4.5678 3.3867 0
M  V30 49 C 0.5680 -4.4823 3.9412 0
M  V30 50 C 0.8244 -5.5253 3.3844 0
M  V30 51 C 1.1727 -6.7072 2.7031 0
M  V30 52 C 1.6871 -7.7994 3.3795 0
M  V30 53 C 2.0906 -8.9494 2.6908 0
M  V30 54 C 2.0069 -9.0204 1.3240 0
M  V30 55 C 1.4791 -7.9315 0.5977 0
M  V30 56 C 1.4046 -7.9242 -0.8083 0
M  V30 57 N 0.9072 -6.9122 -1.4876 0
M  V30 58 C 0.4010 -5.8374 -0.8323 0
M  V30 59 C 0.4526 -5.7320 0.5281 0
M  V30 60 C 1.0290 -6.7702 1.2880 0
M  V30 61 H 1.7863 -7.7589 4.4536 0
M  V30 62 H 2.4848 -9.7824 3.2522 0
M  V30 63 H 2.3389 -9.9003 0.7964 0
M  V30 64 H 1.7723 -8.7728 -1.3803 0
M  V30 65 H -0.0491 -5.0719 -1.4606 0
M  V30 66 H 0.0608 -4.8648 1.0349 0
M  V30 67 C 0.2637 -3.2553 4.5618 0
M  V30 68 C -0.0472 -3.2048 5.9252 0
M  V30 69 C -0.3657 -2.0028 6.5178 0
M  V30 70 C -0.3749 -0.8239 5.7616 0
M  V30 71 C -0.0429 -0.8729 4.4028 0
M  V30 72 C 0.2691 -2.0748 3.8089 0
M  V30 73 H -0.0451 -4.1141 6.5076 0
M  V30 74 H -0.6156 -1.9640 7.5675 0
M  V30 75 H -0.0376 0.0377 3.8259 0
M  V30 76 H 0.5221 -2.1181 2.7614 0
M  V30 77 C -0.7514 0.3884 6.3698 0
M  V30 78 C -1.1179 1.4177 6.8909 0
M  V30 79 C -1.6202 2.5542 7.5494 0
M  V30 80 C -1.9941 2.4654 8.8794 0
M  V30 81 C -2.5595 3.5571 9.5449 0
M  V30 82 C -2.7787 4.7459 8.8935 0
M  V30 83 C -2.4092 4.8852 7.5438 0
M  V30 84 C -2.6237 6.0737 6.8097 0
M  V30 85 C -2.2277 6.1480 5.5062 0
M  V30 86 N -1.6012 5.1186 4.8847 0
M  V30 87 C -1.4017 3.9859 5.5293 0
M  V30 88 C -1.8007 3.7919 6.8608 0
M  V30 89 H -1.8541 1.5342 9.4067 0
M  V30 90 H -2.8372 3.4513 10.5824 0
M  V30 91 H -3.2344 5.5795 9.4042 0
M  V30 92 H -3.1034 6.9121 7.2889 0
M  V30 93 H -2.3980 7.0399 4.9058 0
M  V30 94 H -0.8986 3.1859 4.9901 0
M  V30 95 C -5.2685 0.6747 -1.3672 0
M  V30 96 C -5.4564 1.7529 -0.8517 0
M  V30 97 C -5.6184 3.0302 -0.2822 0
M  V30 98 C -6.6905 3.8362 -0.6230 0
M  V30 99 C -6.8143 5.1296 -0.1024 0
M  V30 100 C -5.8668 5.6440 0.7450 0
M  V30 101 C -4.7630 4.8508 1.1249 0
M  V30 102 C -3.7352 5.3327 1.9576 0
M  V30 103 N -2.7078 4.5928 2.3181 0
M  V30 104 C -2.6304 3.2979 1.9203 0
M  V30 105 C -3.5587 2.7426 1.0870 0
M  V30 106 C -4.6440 3.5195 0.6335 0
M  V30 107 H -7.4370 3.4635 -1.3077 0
M  V30 108 H -7.6653 5.7282 -0.3888 0
M  V30 109 H -5.9556 6.6487 1.1266 0
M  V30 110 H -3.7631 6.3557 2.3255 0
M  V30 111 H -1.7856 2.7351 2.3112 0
M  V30 112 H -3.4761 1.7166 0.7661 0
M  V30 113 C -5.0230 -0.5824 -1.9528 0
M  V30 114 C -3.7187 -1.0902 -1.9885 0
M  V30 115 C -3.4712 -2.3252 -2.5437 0
M  V30 116 C -4.5227 -3.0848 -3.0693 0
M  V30 117 C -5.8250 -2.5700 -3.0469 0
M  V30 118 C -6.0722 -1.3312 -2.4974 0
M  V30 119 H -2.9122 -0.5029 -1.5792 0
M  V30 120 H -2.4677 -2.7177 -2.5744 0
M  V30 121 H -6.6353 -3.1530 -3.4585 0
M  V30 122 H -7.0773 -0.9370 -2.4758 0
M  V30 123 C -4.2940 -4.3729 -3.5886 0
M  V30 124 C -4.1145 -5.4981 -3.9975 0
M  V30 125 C -4.0002 -6.8336 -4.4228 0
M  V30 126 C -5.1268 -7.5149 -4.8505 0
M  V30 127 C -5.0604 -8.8626 -5.2159 0
M  V30 128 C -3.8781 -9.5572 -5.1432 0
M  V30 129 C -2.7060 -8.9054 -4.7205 0
M  V30 130 C -1.4615 -9.5655 -4.6054 0
M  V30 131 C -0.3584 -8.8705 -4.2032 0
M  V30 132 N -0.4041 -7.5431 -3.9311 0
M  V30 133 C -1.5504 -6.8961 -4.0068 0
M  V30 134 C -2.7505 -7.5226 -4.3769 0
M  V30 135 H -6.0729 -6.9972 -4.8935 0
M  V30 136 H -5.9593 -9.3606 -5.5461 0
M  V30 137 H -3.8349 -10.6024 -5.4058 0
M  V30 138 H -1.3973 -10.6172 -4.8346 0
M  V30 139 H 0.6099 -9.3530 -4.0825 0
M  V30 140 H -1.5405 -5.8329 -3.7762 0
M  V30 141 C -0.0168 3.2539 -4.3223 0
M  V30 142 C -0.2562 4.3042 -3.7712 0
M  V30 143 C -0.5899 5.4948 -3.0992 0
M  V30 144 C -1.0267 6.6103 -3.7929 0
M  V30 145 C -1.4147 7.7731 -3.1176 0
M  V30 146 C -1.3956 7.8346 -1.7476 0
M  V30 147 C -0.9525 6.7206 -1.0033 0
M  V30 148 C -0.9541 6.7015 0.4046 0
M  V30 149 N -0.5406 5.6637 1.1006 0
M  V30 150 C -0.0488 4.5706 0.4643 0
M  V30 151 C -0.0301 4.4768 -0.8976 0
M  V30 152 C -0.5163 5.5451 -1.6784 0
M  V30 153 H -1.0740 6.5790 -4.8709 0
M  V30 154 H -1.7452 8.6247 -3.6920 0
M  V30 155 H -1.7157 8.7254 -1.2313 0
M  V30 156 H -1.3138 7.5617 0.9638 0
M  V30 157 H 0.3254 3.7796 1.1113 0
M  V30 158 H 0.3460 3.5954 -1.3915 0
M  V30 159 C 0.2517 2.0209 -4.9462 0
M  V30 160 C 0.5728 0.8999 -4.1711 0
M  V30 161 C 0.8282 -0.3101 -4.7754 0
M  V30 162 C 0.7728 -0.4273 -6.1690 0
M  V30 163 C 0.4507 0.6933 -6.9444 0
M  V30 164 C 0.1915 1.9033 -6.3397 0
M  V30 165 H 0.6220 0.9948 -3.0979 0
M  V30 166 H 1.0862 -1.1728 -4.1825 0
M  V30 167 H 0.4089 0.6028 -8.0197 0
M  V30 168 H -0.0553 2.7678 -6.9378 0
M  V30 169 C 1.0681 -1.6523 -6.7965 0
M  V30 170 C 1.3503 -2.6993 -7.3343 0
M  V30 171 C 1.7580 -3.8616 -8.0130 0
M  V30 172 C 2.0507 -3.8008 -9.3645 0
M  V30 173 C 2.5299 -4.9210 -10.0499 0
M  V30 174 C 2.7427 -6.1109 -9.3985 0
M  V30 175 C 2.4494 -6.2229 -8.0277 0
M  V30 176 C 2.6597 -7.4121 -7.2933 0
M  V30 177 C 2.3338 -7.4596 -5.9692 0
M  V30 178 N 1.7786 -6.4025 -5.3262 0
M  V30 179 C 1.5896 -5.2680 -5.9707 0
M  V30 180 C 1.9260 -5.1001 -7.3229 0
M  V30 181 H 1.9176 -2.8691 -9.8929 0
M  V30 182 H 2.7474 -4.8365 -11.1038 0
M  V30 183 H 3.1347 -6.9665 -9.9256 0
M  V30 184 H 3.0800 -8.2726 -7.7888 0
M  V30 185 H 2.5045 -8.3519 -5.3696 0
M  V30 186 H 1.1452 -4.4452 -5.4148 0
M  V30 END ATOM
M  V30 BEGIN BOND
M  V30 1 3 3 4
M  V30 2 1 4 5
M  V30 3 2 5 6
M  V30 4 1 6 7
M  V30 5 2 7 8
M  V30 6 1 8 9
M  V30 7 2 9 10
M  V30 8 1 10 11
M  V30 9 2 11 12
M  V30 10 1 12 13
M  V30 11 2 13 14
M  V30 12 1 14 5
M  V30 13 1 14 9
M  V30 14 1 6 15
M  V30 15 1 7 16
M  V30 16 1 8 17
M  V30 17 1 10 18
M  V30 18 1 12 19
M  V30 19 1 13 20
M  V30 20 2 21 22
M  V30 21 1 22 23
M  V30 22 2 23 24
M  V30 23 1 24 25
M  V30 24 2 25 26
M  V30 25 1 26 21
M  V30 26 1 22 27
M  V30 27 1 23 28
M  V30 28 1 25 29
M  V30 29 1 26 30
M  V30 30 3 31 32
M  V30 31 1 32 33
M  V30 32 2 33 34
M  V30 33 1 34 35
M  V30 34 2 35 36
M  V30 35 1 36 37
M  V30 36 2 37 38
M  V30 37 1 38 39
M  V30 38 2 39 40
M  V30 39 1 40 41
M  V30 40 2 41 42
M  V30 41 1 42 33
M  V30 42 1 42 37
M  V30 43 1 34 43
M  V30 44 1 35 44
M  V30 45 1 36 45
M  V30 46 1 38 46
M  V30 47 1 39 47
M  V30 48 1 41 48
M  V30 49 1 3 21
M  V30 50 1 24 31
M  V30 51 3 49 50
M  V30 52 1 50 51
M  V30 53 2 51 52
M  V30 54 1 52 53
M  V30 55 2 53 54
M  V30 56 1 54 55
M  V30 57 2 55 56
M  V30 58 1 56 57
M  V30 59 2 57 58
M  V30 60 1 58 59
M  V30 61 2 59 60
M  V30 62 1 60 51
M  V30 63 1 60 55
M  V30 64 1 52 61
M  V30 65 1 53 62
M  V30 66 1 54 63
M  V30 67 1 56 64
M  V30 68 1 58 65
M  V30 69 1 59 66
M  V30 70 2 67 68
M  V30 71 1 68 69
M  V30 72 2 69 70
M  V30 73 1 70 71
M  V30 74 2 71 72
M  V30 75 1 72 67
M  V30 76 1 68 73
M  V30 77 1 69 74
M  V30 78 1 71 75
M  V30 79 1 72 76
M  V30 80 3 77 78
M  V30 81 1 78 79
M  V30 82 2 79 80
M  V30 83 1 80 81
M  V30 84 2 81 82
M  V30 85 1 82 83
M  V30 86 2 83 84
M  V30 87 1 84 85
M  V30 88 2 85 86
M  V30 89 1 86 87
M  V30 90 2 87 88
M  V30 91 1 88 79
M  V30 92 1 88 83
M  V30 93 1 80 89
M  V30 94 1 81 90
M  V30 95 1 82 91
M  V30 96 1 84 92
M  V30 97 1 85 93
M  V30 98 1 87 94
M  V30 99 1 49 67
M  V30 100 1 70 77
M  V30 101 3 95 96
M  V30 102 1 96 97
M  V30 103 2 97 98
M  V30 104 1 98 99
M  V30 105 2 99 100
M  V30 106 1 100 101
M  V30 107 2 101 102
M  V30 108 1 102 103
M  V30 109 2 103 104
M  V30 110 1 104 105
M  V30 111 2 105 106
M  V30 112 1 106 97
M  V30 113 1 106 101
M  V30 114 1 98 107
M  V30 115 1 99 108
M  V30 116 1 100 109
M  V30 117 1 102 110
M  V30 118 1 104 111
M  V30 119 1 105 112
M  V30 120 2 113 114
M  V30 121 1 114 115
M  V30 122 2 115 116
M  V30 123 1 116 117
M  V30 124 2 117 118
M  V30 125 1 118 113
M  V30 126 1 114 119
M  V30 127 1 115 120
M  V30 128 1 117 121
M  V30 129 1 118 122
M  V30 130 3 123 124
M  V30 131 1 124 125
M  V30 132 2 125 126
M  V30 133 1 126 127
M  V30 134 2 127 128
M  V30 135 1 128 129
M  V30 136 2 129 130
M  V30 137 1 130 131
M  V30 138 2 131 132
M  V30 139 1 132 133
M  V30 140 2 133 134
M  V30 141 1 134 125
M  V30 142 1 134 129
M  V30 143 1 126 135
M  V30 144 1 127 136
M  V30 145 1 128 137
M  V30 146 1 130 138
M  V30 147 1 131 139
M  V30 148 1 133 140
M  V30 149 1 95 113
M  V30 150 1 116 123
M  V30 151 3 141 142
M  V30 152 1 142 143
M  V30 153 2 143 144
M  V30 154 1 144 145
M  V30 155 2 145 146
M  V30 156 1 146 147
M  V30 157 2 147 148
M  V30 158 1 148 149
M  V30 159 2 149 150
M  V30 160 1 150 151
M  V30 161 2 151 152
M  V30 162 1 152 143
M  V30 163 1 152 147
M  V30 164 1 144 153
M  V30 165 1 145 154
M  V30 166 1 146 155
M  V30 167 1 148 156
M  V30 168 1 150 157
M  V30 169 1 151 158
M  V30 170 2 159 160
M  V30 171 1 160 161
M  V30 172 2 161 162
M  V30 173 1 162 163
M  V30 174 2 163 164
M  V30 175 1 164 159
M  V30 176 1 160 165
M  V30 177 1 161 166
M  V30 178 1 163 167
M  V30 179 1 164 168
M  V30 180 3 169 170
M  V30 181 1 170 171
M  V30 182 2 171 172
M  V30 183 1 172 173
M  V30 184 2 173 174
M  V30 185 1 174 175
M  V30 186 2 175 176
M  V30 187 1 176 177
M  V30 188 2 177 178
M  V30 189 1 178 179
M  V30 190 2 179 180
M  V30 191 1 180 171
M  V30 192 1 180 175
M  V30 193 1 172 181
M  V30 194 1 173 182
M  V30 195 1 174 183
M  V30 196 1 176 184
M  V30 197 1 177 185
M  V30 198 1 179 186
M  V30 199 1 141 159
M  V30 200 1 162 169
M  V30 201 9 40 1
M  V30 202 9 86 1
M  V30 203 9 103 1
M  V30 204 9 149 1
M  V30 205 9 11 2
M  V30 206 9 57 2
M  V30 207 9 132 2
M  V30 208 9 178 2
M  V30 END BOND
M  V30 END CTAB
M  END

$$$$
