
     RDKit          3D

  0  0  0  0  0  0  0  0  0  0999 V3000
M  V30 BEGIN CTAB
M  V30 COUNTS 186 208 0 0 0
M  V30 BEGIN ATOM
M  V30 1 Pd 2.3602 6.4788 1.2829 0 CHG=2
M  V30 2 Pd -2.8793 -6.0591 -1.5681 0 CHG=2
M  V30 3 C 4.1076 -3.3668 0.2723 0
M  V30 4 C 3.6490 -4.4661 0.0601 0
M  V30 5 C 3.0675 -5.7323 -0.1377 0
M  V30 6 C 3.7469 -6.8920 0.1936 0
M  V30 7 C 3.1436 -8.1468 0.0515 0
M  V30 8 C 1.8533 -8.2638 -0.3986 0
M  V30 9 C 1.1277 -7.1061 -0.7515 0
M  V30 10 C -0.2148 -7.1534 -1.1738 0
M  V30 11 N -0.8932 -6.0749 -1.5039 0
M  V30 12 C -0.2890 -4.8598 -1.4864 0
M  V30 13 C 1.0001 -4.7016 -1.0653 0
M  V30 14 C 1.7425 -5.8257 -0.6504 0
M  V30 15 H 4.7553 -6.8252 0.5730 0
M  V30 16 H 3.7058 -9.0293 0.3153 0
M  V30 17 H 1.3856 -9.2314 -0.4862 0
M  V30 18 H -0.7381 -8.1046 -1.2307 0
M  V30 19 H -0.9003 -4.0266 -1.8276 0
M  V30 20 H 1.4631 -3.7285 -1.0383 0
M  V30 21 C 4.6204 -2.0803 0.5249 0
M  V30 22 C 5.9160 -1.9200 1.0297 0
M  V30 23 C 6.4111 -0.6591 1.2791 0
M  V30 24 C 5.6203 0.4700 1.0324 0
M  V30 25 C 4.3230 0.3086 0.5322 0
M  V30 26 C 3.8295 -0.9512 0.2794 0
M  V30 27 H 6.5266 -2.7904 1.2183 0
M  V30 28 H 7.4121 -0.5343 1.6643 0
M  V30 29 H 3.7208 1.1806 0.3346 0
M  V30 30 H 2.8330 -1.0781 -0.1129 0
M  V30 31 C 6.1449 1.7563 1.2591 0
M  V30 32 C 6.6027 2.8643 1.4259 0
M  V30 33 C 7.2151 4.1243 1.5490 0
M  V30 34 C 8.5909 4.2101 1.6741 0
M  V30 35 C 9.2350 5.4500 1.7227 0
M  V30 36 C 8.5233 6.6205 1.6287 0
M  V30 37 C 7.1224 6.5829 1.5113 0
M  V30 38 C 6.3311 7.7482 1.3944 0
M  V30 39 C 4.9738 7.6417 1.3050 0
M  V30 40 N 4.3410 6.4433 1.3546 0
M  V30 41 C 5.0456 5.3321 1.4384 0
M  V30 42 C 6.4479 5.3273 1.4967 0
M  V30 43 H 9.1750 3.3037 1.7224 0
M  V30 44 H 10.3095 5.4784 1.8208 0
M  V30 45 H 9.0258 7.5749 1.6430 0
M  V30 46 H 6.8109 8.7136 1.3745 0
M  V30 47 H 4.3374 8.5174 1.1906 0
M  V30 48 H 4.4969 4.3934 1.4718 0
M  V30 49 C -0.5019 -2.4903 4.8459 0
M  V30 50 C -0.9079 -3.6008 4.5903 0
M  V30 51 C -1.3328 -4.8978 4.2444 0
M  V30 52 C -1.2056 -5.9537 5.1298 0
M  V30 53 C -1.5712 -7.2532 4.7596 0
M  V30 54 C -2.0475 -7.5222 3.5022 0
M  V30 55 C -2.2012 -6.4715 2.5725 0
M  V30 56 C -2.6448 -6.6864 1.2537 0
M  V30 57 N -2.7946 -5.7072 0.3866 0
M  V30 58 C -2.5594 -4.4249 0.7626 0
M  V30 59 C -2.0966 -4.1120 2.0085 0
M  V30 60 C -1.8696 -5.1384 2.9478 0
M  V30 61 H -0.8099 -5.7722 6.1176 0
M  V30 62 H -1.4602 -8.0511 5.4776 0
M  V30 63 H -2.3076 -8.5284 3.2148 0
M  V30 64 H -2.8725 -7.6926 0.9099 0
M  V30 65 H -2.7667 -3.6679 0.0095 0
M  V30 66 H -1.8986 -3.0898 2.2887 0
M  V30 67 C -0.0357 -1.1888 5.1147 0
M  V30 68 C 0.0952 -0.7374 6.4328 0
M  V30 69 C 0.5303 0.5451 6.6845 0
M  V30 70 C 0.8495 1.4027 5.6242 0
M  V30 71 C 0.7384 0.9427 4.3070 0
M  V30 72 C 0.2974 -0.3366 4.0549 0
M  V30 73 H -0.1555 -1.3966 7.2505 0
M  V30 74 H 0.6222 0.8978 7.7009 0
M  V30 75 H 0.9974 1.6002 3.4930 0
M  V30 76 H 0.2068 -0.6944 3.0416 0
M  V30 77 C 1.2442 2.7261 5.8961 0
M  V30 78 C 1.5409 3.8745 6.1383 0
M  V30 79 C 1.8083 5.2072 6.4985 0
M  V30 80 C 1.8136 5.5672 7.8353 0
M  V30 81 C 2.0091 6.8956 8.2245 0
M  V30 82 C 2.1830 7.8875 7.2911 0
M  V30 83 C 2.1914 7.5687 5.9214 0
M  V30 84 C 2.3467 8.5427 4.9092 0
M  V30 85 C 2.3608 8.1642 3.5984 0
M  V30 86 N 2.2573 6.8653 3.2235 0
M  V30 87 C 2.0903 5.9294 4.1369 0
M  V30 88 C 2.0271 6.2138 5.5098 0
M  V30 89 H 1.6551 4.8095 8.5873 0
M  V30 90 H 2.0086 7.1386 9.2761 0
M  V30 91 H 2.3126 8.9145 7.5942 0
M  V30 92 H 2.4494 9.5801 5.1846 0
M  V30 93 H 2.4558 8.8908 2.7935 0
M  V30 94 H 2.0083 4.9014 3.7900 0
M  V30 95 C -4.5729 3.8356 -0.8328 0
M  V30 96 C -4.1038 4.9334 -0.6364 0
M  V30 97 C -3.5082 6.1956 -0.4516 0
M  V30 98 C -4.1468 7.3555 -0.8541 0
M  V30 99 C -3.5247 8.6028 -0.7258 0
M  V30 100 C -2.2563 8.7108 -0.2160 0
M  V30 101 C -1.5743 7.5527 0.2150 0
M  V30 102 C -0.2563 7.5899 0.7087 0
M  V30 103 N 0.3796 6.5119 1.1169 0
M  V30 104 C -0.2491 5.3096 1.1118 0
M  V30 105 C -1.5158 5.1600 0.6245 0
M  V30 106 C -2.2096 6.2814 0.1261 0
M  V30 107 H -5.1361 7.2946 -1.2815 0
M  V30 108 H -4.0545 9.4859 -1.0482 0
M  V30 109 H -1.7730 9.6717 -0.1389 0
M  V30 110 H 0.2831 8.5328 0.7585 0
M  V30 111 H 0.3202 4.4790 1.5232 0
M  V30 112 H -1.9975 4.1955 0.6119 0
M  V30 113 C -5.0929 2.5452 -1.0510 0
M  V30 114 C -4.2249 1.4490 -1.1259 0
M  V30 115 C -4.7251 0.1817 -1.3223 0
M  V30 116 C -6.1049 -0.0206 -1.4406 0
M  V30 117 C -6.9716 1.0780 -1.3807 0
M  V30 118 C -6.4710 2.3473 -1.1908 0
M  V30 119 H -3.1628 1.6094 -1.0306 0
M  V30 120 H -4.0590 -0.6637 -1.3824 0
M  V30 121 H -8.0356 0.9228 -1.4788 0
M  V30 122 H -7.1402 3.1933 -1.1396 0
M  V30 123 C -6.6352 -1.3164 -1.5846 0
M  V30 124 C -7.1034 -2.4299 -1.6652 0
M  V30 125 C -7.7266 -3.6903 -1.6898 0
M  V30 126 C -9.1081 -3.7704 -1.7279 0
M  V30 127 C -9.7611 -5.0057 -1.6852 0
M  V30 128 C -9.0517 -6.1772 -1.5848 0
M  V30 129 C -7.6463 -6.1458 -1.5494 0
M  V30 130 C -6.8569 -7.3119 -1.4283 0
M  V30 131 C -5.4962 -7.2129 -1.4149 0
M  V30 132 N -4.8602 -6.0224 -1.5427 0
M  V30 133 C -5.5614 -4.9099 -1.6372 0
M  V30 134 C -6.9648 -4.8961 -1.6262 0
M  V30 135 H -9.6889 -2.8624 -1.7826 0
M  V30 136 H -10.8397 -5.0294 -1.7186 0
M  V30 137 H -9.5595 -7.1272 -1.5309 0
M  V30 138 H -7.3408 -8.2719 -1.3440 0
M  V30 139 H -4.8594 -8.0883 -1.3004 0
M  V30 140 H -5.0091 -3.9776 -1.7344 0
M  V30 141 C 0.2465 2.7964 -5.1524 0
M  V30 142 C 0.6687 3.9033 -4.9068 0
M  V30 143 C 1.1074 5.1985 -4.5744 0
M  V30 144 C 1.0519 6.2314 -5.4944 0
M  V30 145 C 1.4329 7.5313 -5.1428 0
M  V30 146 C 1.8508 7.8257 -3.8701 0
M  V30 147 C 1.9261 6.8002 -2.9037 0
M  V30 148 C 2.3003 7.0442 -1.5684 0
M  V30 149 N 2.3719 6.0890 -0.6657 0
M  V30 150 C 2.1212 4.8021 -1.0162 0
M  V30 151 C 1.7230 4.4629 -2.2773 0
M  V30 152 C 1.5804 5.4651 -3.2583 0
M  V30 153 H 0.7035 6.0305 -6.4961 0
M  V30 154 H 1.3808 8.3102 -5.8880 0
M  V30 155 H 2.1229 8.8330 -3.5984 0
M  V30 156 H 2.5367 8.0537 -1.2414 0
M  V30 157 H 2.2577 4.0655 -0.2268 0
M  V30 158 H 1.5088 3.4392 -2.5388 0
M  V30 159 C -0.2536 1.5073 -5.4173 0
M  V30 160 C -0.2766 0.5435 -4.4018 0
M  V30 161 C -0.7721 -0.7158 -4.6531 0
M  V30 162 C -1.2525 -1.0429 -5.9264 0
M  V30 163 C -1.2306 -0.0790 -6.9418 0
M  V30 164 C -0.7382 1.1824 -6.6897 0
M  V30 165 H 0.1010 0.7960 -3.4237 0
M  V30 166 H -0.7815 -1.4636 -3.8766 0
M  V30 167 H -1.6005 -0.3319 -7.9243 0
M  V30 168 H -0.7199 1.9251 -7.4732 0
M  V30 169 C -1.7271 -2.3394 -6.2009 0
M  V30 170 C -2.1080 -3.4629 -6.4413 0
M  V30 171 C -2.4730 -4.7731 -6.7991 0
M  V30 172 C -2.5657 -5.1193 -8.1360 0
M  V30 173 C -2.8527 -6.4316 -8.5231 0
M  V30 174 C -3.0325 -7.4212 -7.5883 0
M  V30 175 C -2.9582 -7.1142 -6.2180 0
M  V30 176 C -3.1171 -8.0866 -5.2046 0
M  V30 177 C -3.0541 -7.7173 -3.8926 0
M  V30 178 N -2.8717 -6.4274 -3.5158 0
M  V30 179 C -2.6947 -5.4952 -4.4313 0
M  V30 180 C -2.7023 -5.7736 -5.8069 0
M  V30 181 H -2.4014 -4.3649 -8.8902 0
M  V30 182 H -2.9174 -6.6650 -9.5750 0
M  V30 183 H -3.2307 -8.4373 -7.8911 0
M  V30 184 H -3.2848 -9.1155 -5.4803 0
M  V30 185 H -3.1492 -8.4445 -3.0883 0
M  V30 186 H -2.5482 -4.4747 -4.0839 0
M  V30 END ATOM
M  V30 BEGIN BOND
M  V30 1 3 3 4
M  V30 2 1 4 5
M  V30 3 2 5 6
M  V30 4 1 6 7
M  V30 5 2 7 8
M  V30 6 1 8 9
M  V30 7 2 9 10
M  V30 8 1 10 11
M  V30 9 2 11 12
M  V30 10 1 12 13
M  V30 11 2 13 14
M  V30 12 1 14 5
M  V30 13 1 14 9
M  V30 14 1 6 15
M  V30 15 1 7 16
M  V30 16 1 8 17
M  V30 17 1 10 18
M  V30 18 1 12 19
M  V30 19 1 13 20
M  V30 20 2 21 22
M  V30 21 1 22 23
M  V30 22 2 23 24
M  V30 23 1 24 25
M  V30 24 2 25 26
M  V30 25 1 26 21
M  V30 26 1 22 27
M  V30 27 1 23 28
M  V30 28 1 25 29
M  V30 29 1 26 30
M  V30 30 3 31 32
M  V30 31 1 32 33
M  V30 32 2 33 34
M  V30 33 1 34 35
M  V30 34 2 35 36
M  V30 35 1 36 37
M  V30 36 2 37 38
M  V30 37 1 38 39
M  V30 38 2 39 40
M  V30 39 1 40 41
M  V30 40 2 41 42
M  V30 41 1 42 33
M  V30 42 1 42 37
M  V30 43 1 34 43
M  V30 44 1 35 44
M  V30 45 1 36 45
M  V30 46 1 38 46
M  V30 47 1 39 47
M  V30 48 1 41 48
M  V30 49 1 3 21
M  V30 50 1 24 31
M  V30 51 3 49 50
M  V30 52 1 50 51
M  V30 53 2 51 52
M  V30 54 1 52 53
M  V30 55 2 53 54
M  V30 56 1 54 55
M  V30 57 2 55 56
M  V30 58 1 56 57
M  V30 59 2 57 58
M  V30 60 1 58 59
M  V30 61 2 59 60
M  V30 62 1 60 51
M  V30 63 1 60 55
M  V30 64 1 52 61
M  V30 65 1 53 62
M  V30 66 1 54 63
M  V30 67 1 56 64
M  V30 68 1 58 65
M  V30 69 1 59 66
M  V30 70 2 67 68
M  V30 71 1 68 69
M  V30 72 2 69 70
M  V30 73 1 70 71
M  V30 74 2 71 72
M  V30 75 1 72 67
M  V30 76 1 68 73
M  V30 77 1 69 74
M  V30 78 1 71 75
M  V30 79 1 72 76
M  V30 80 3 77 78
M  V30 81 1 78 79
M  V30 82 2 79 80
M  V30 83 1 80 81
M  V30 84 2 81 82
M  V30 85 1 82 83
M  V30 86 2 83 84
M  V30 87 1 84 85
M  V30 88 2 85 86
M  V30 89 1 86 87
M  V30 90 2 87 88
M  V30 91 1 88 79
M  V30 92 1 88 83
M  V30 93 1 80 89
M  V30 94 1 81 90
M  V30 95 1 82 91
M  V30 96 1 84 92
M  V30 97 1 85 93
M  V30 98 1 87 94
M  V30 99 1 49 67
M  V30 100 1 70 77
M  V30 101 3 95 96
M  V30 102 1 96 97
M  V30 103 2 97 98
M  V30 104 1 98 99
M  V30 105 2 99 100
M  V30 106 1 100 101
M  V30 107 2 101 102
M  V30 108 1 102 103
M  V30 109 2 103 104
M  V30 110 1 104 105
M  V30 111 2 105 106
M  V30 112 1 106 97
M  V30 113 1 106 101
M  V30 114 1 98 107
M  V30 115 1 99 108
M  V30 116 1 100 109
M  V30 117 1 102 110
M  V30 118 1 104 111
M  V30 119 1 105 112
M  V30 120 2 113 114
M  V30 121 1 114 115
M  V30 122 2 115 116
M  V30 123 1 116 117
M  V30 124 2 117 118
M  V30 125 1 118 113
M  V30 126 1 114 119
M  V30 127 1 115 120
M  V30 128 1 117 121
M  V30 129 1 118 122
M  V30 130 3 123 124
M  V30 131 1 124 125
M  V30 132 2 125 126
M  V30 133 1 126 127
M  V30 134 2 127 128
M  V30 135 1 128 129
M  V30 136 2 129 130
M  V30 137 1 130 131
M  V30 138 2 131 132
M  V30 139 1 132 133
M  V30 140 2 133 134
M  V30 141 1 134 125
M  V30 142 1 134 129
M  V30 143 1 126 135
M  V30 144 1 127 136
M  V30 145 1 128 137
M  V30 146 1 130 138
M  V30 147 1 131 139
M  V30 148 1 133 140
M  V30 149 1 95 113
M  V30 150 1 116 123
M  V30 151 3 141 142
M  V30 152 1 142 143
M  V30 153 2 143 144
M  V30 154 1 144 145
M  V30 155 2 145 146
M  V30 156 1 146 147
M  V30 157 2 147 148
M  V30 158 1 148 149
M  V30 159 2 149 150
M  V30 160 1 150 151
M  V30 161 2 151 152
M  V30 162 1 152 143
M  V30 163 1 152 147
M  V30 164 1 144 153
M  V30 165 1 145 154
M  V30 166 1 146 155
M  V30 167 1 148 156
M  V30 168 1 150 157
M  V30 169 1 151 158
M  V30 170 2 159 160
M  V30 171 1 160 161
M  V30 172 2 161 162
M  V30 173 1 162 163
M  V30 174 2 163 164
M  V30 175 1 164 159
M  V30 176 1 160 165
M  V30 177 1 161 166
M  V30 178 1 163 167
M  V30 179 1 164 168
M  V30 180 3 169 170
M  V30 181 1 170 171
M  V30 182 2 171 172
M  V30 183 1 172 173
M  V30 184 2 173 174
M  V30 185 1 174 175
M  V30 186 2 175 176
M  V30 187 1 176 177
M  V30 188 2 177 178
M  V30 189 1 178 179
M  V30 190 2 179 180
M  V30 191 1 180 171
M  V30 192 1 180 175
M  V30 193 1 172 181
M  V30 194 1 173 182
M  V30 195 1 174 183
M  V30 196 1 176 184
M  V30 197 1 177 185
M  V30 198 1 179 186
M  V30 199 1 141 159
M  V30 200 1 162 169
M  V30 201 9 40 1
M  V30 202 9 86 1
M  V30 203 9 103 1
M  V30 204 9 149 1
M  V30 205 9 11 2
M  V30 206 9 57 2
M  V30 207 9 132 2
M  V30 208 9 178 2
M  V30 END BOND
M  V30 END CTAB
M  END

$$$$
