
     RDKit          3D

  0  0  0  0  0  0  0  0  0  0999 V3000
M  V30 BEGIN CTAB
M  V30 COUNTS 186 208 0 0 0
M  V30 BEGIN ATOM
M  V30 1 Pd 1.4517 6.6706 1.3083 0 CHG=2
M  V30 2 Pd -1.7165 -6.6069 -1.2313 0 CHG=2
M  V30 3 C -0.1422 -0.4521 -5.6008 0
M  V30 4 C -0.3823 -1.6161 -5.8270 0
M  V30 5 C -0.6096 -2.9874 -6.0471 0
M  V30 6 C -0.3748 -3.5627 -7.2841 0
M  V30 7 C -0.5447 -4.9374 -7.4840 0
M  V30 8 C -0.9265 -5.7594 -6.4547 0
M  V30 9 C -1.1802 -5.2119 -5.1791 0
M  V30 10 C -1.5280 -6.0062 -4.0697 0
M  V30 11 N -1.7654 -5.4973 -2.8793 0
M  V30 12 C -1.7219 -4.1537 -2.6932 0
M  V30 13 C -1.3668 -3.2981 -3.6961 0
M  V30 14 C -1.0506 -3.8090 -4.9712 0
M  V30 15 H -0.0501 -2.9408 -8.1046 0
M  V30 16 H -0.3570 -5.3496 -8.4635 0
M  V30 17 H -1.0354 -6.8211 -6.6085 0
M  V30 18 H -1.6022 -7.0861 -4.1708 0
M  V30 19 H -1.9864 -3.8093 -1.6953 0
M  V30 20 H -1.3178 -2.2340 -3.5310 0
M  V30 21 C 0.1445 0.8966 -5.3168 0
M  V30 22 C 0.5828 1.7569 -6.3302 0
M  V30 23 C 0.8660 3.0745 -6.0458 0
M  V30 24 C 0.7205 3.5607 -4.7406 0
M  V30 25 C 0.2870 2.6985 -3.7269 0
M  V30 26 C 0.0002 1.3828 -4.0116 0
M  V30 27 H 0.6933 1.3826 -7.3371 0
M  V30 28 H 1.1997 3.7400 -6.8279 0
M  V30 29 H 0.1670 3.0789 -2.7253 0
M  V30 30 H -0.3410 0.7181 -3.2339 0
M  V30 31 C 0.9807 4.9161 -4.4645 0
M  V30 32 C 1.1761 6.0874 -4.2294 0
M  V30 33 C 1.3267 7.4717 -4.0327 0
M  V30 34 C 1.3780 8.3193 -5.1257 0
M  V30 35 C 1.4516 9.7056 -4.9608 0
M  V30 36 C 1.4560 10.2694 -3.7088 0
M  V30 37 C 1.4161 9.4473 -2.5685 0
M  V30 38 C 1.4018 9.9619 -1.2522 0
M  V30 39 C 1.3839 9.1073 -0.1887 0
M  V30 40 N 1.4098 7.7608 -0.3468 0
M  V30 41 C 1.3986 7.2420 -1.5589 0
M  V30 42 C 1.3774 8.0306 -2.7197 0
M  V30 43 H 1.3484 7.9016 -6.1206 0
M  V30 44 H 1.4903 10.3358 -5.8362 0
M  V30 45 H 1.4892 11.3405 -3.5856 0
M  V30 46 H 1.4027 11.0296 -1.1016 0
M  V30 47 H 1.3492 9.4707 0.8368 0
M  V30 48 H 1.4163 6.1572 -1.6387 0
M  V30 49 C 4.7220 -2.3767 -1.6549 0
M  V30 50 C 4.4349 -3.5200 -1.9274 0
M  V30 51 C 4.0498 -4.8268 -2.2827 0
M  V30 52 C 4.8733 -5.6337 -3.0482 0
M  V30 53 C 4.4604 -6.9088 -3.4519 0
M  V30 54 C 3.2200 -7.3886 -3.1178 0
M  V30 55 C 2.3537 -6.6007 -2.3302 0
M  V30 56 C 1.0529 -7.0169 -1.9880 0
M  V30 57 N 0.2452 -6.2863 -1.2484 0
M  V30 58 C 0.6703 -5.0991 -0.7476 0
M  V30 59 C 1.9023 -4.5905 -1.0450 0
M  V30 60 C 2.7751 -5.3171 -1.8800 0
M  V30 61 H 5.8449 -5.2690 -3.3451 0
M  V30 62 H 5.1305 -7.5104 -4.0462 0
M  V30 63 H 2.8982 -8.3629 -3.4492 0
M  V30 64 H 0.6731 -7.9724 -2.3418 0
M  V30 65 H -0.0314 -4.5852 -0.0944 0
M  V30 66 H 2.2210 -3.6381 -0.6529 0
M  V30 67 C 5.0281 -1.0423 -1.3254 0
M  V30 68 C 6.3574 -0.6078 -1.2770 0
M  V30 69 C 6.6474 0.6937 -0.9312 0
M  V30 70 C 5.6145 1.5910 -0.6317 0
M  V30 71 C 4.2846 1.1606 -0.7013 0
M  V30 72 C 3.9947 -0.1415 -1.0404 0
M  V30 73 H 7.1544 -1.3005 -1.5030 0
M  V30 74 H 7.6732 1.0275 -0.8838 0
M  V30 75 H 3.4908 1.8567 -0.4833 0
M  V30 76 H 2.9716 -0.4787 -1.0918 0
M  V30 77 C 5.9291 2.9032 -0.2312 0
M  V30 78 C 6.2107 4.0159 0.1536 0
M  V30 79 C 6.6208 5.2630 0.6576 0
M  V30 80 C 7.9713 5.5510 0.7564 0
M  V30 81 C 8.4143 6.7536 1.3149 0
M  V30 82 C 7.5227 7.6782 1.8001 0
M  V30 83 C 6.1406 7.4324 1.7156 0
M  V30 84 C 5.1706 8.3326 2.2121 0
M  V30 85 C 3.8441 8.0402 2.0849 0
M  V30 86 N 3.4118 6.9138 1.4662 0
M  V30 87 C 4.2857 6.0392 1.0083 0
M  V30 88 C 5.6723 6.2257 1.1182 0
M  V30 89 H 8.6927 4.8297 0.4039 0
M  V30 90 H 9.4749 6.9442 1.3738 0
M  V30 91 H 7.8685 8.5959 2.2495 0
M  V30 92 H 5.4910 9.2437 2.6914 0
M  V30 93 H 3.0721 8.7003 2.4760 0
M  V30 94 H 3.8935 5.1483 0.5225 0
M  V30 95 C -0.3979 0.5893 5.6818 0
M  V30 96 C -0.1741 1.7581 5.8997 0
M  V30 97 C 0.0390 3.1342 6.1068 0
M  V30 98 C -0.2688 3.7333 7.3157 0
M  V30 99 C -0.1142 5.1126 7.4970 0
M  V30 100 C 0.3279 5.9144 6.4762 0
M  V30 101 C 0.6619 5.3410 5.2305 0
M  V30 102 C 1.0818 6.1125 4.1301 0
M  V30 103 N 1.3996 5.5794 2.9692 0
M  V30 104 C 1.3704 4.2323 2.8095 0
M  V30 105 C 0.9485 3.3971 3.8039 0
M  V30 106 C 0.5462 3.9341 5.0436 0
M  V30 107 H -0.6423 3.1275 8.1273 0
M  V30 108 H -0.3621 5.5442 8.4545 0
M  V30 109 H 0.4251 6.9793 6.6141 0
M  V30 110 H 1.1478 7.1947 4.2138 0
M  V30 111 H 1.7074 3.8656 1.8425 0
M  V30 112 H 0.9154 2.3294 3.6577 0
M  V30 113 C -0.6501 -0.7671 5.3989 0
M  V30 114 C -0.8280 -1.1797 4.0728 0
M  V30 115 C -1.0583 -2.5059 3.7850 0
M  V30 116 C -1.1086 -3.4519 4.8152 0
M  V30 117 C -0.9455 -3.0364 6.1428 0
M  V30 118 C -0.7215 -1.7084 6.4318 0
M  V30 119 H -0.7849 -0.4477 3.2821 0
M  V30 120 H -1.1976 -2.8259 2.7651 0
M  V30 121 H -0.9910 -3.7652 6.9382 0
M  V30 122 H -0.5909 -1.3895 7.4553 0
M  V30 123 C -1.2864 -4.8192 4.5323 0
M  V30 124 C -1.3955 -6.0015 4.2962 0
M  V30 125 C -1.4473 -7.3931 4.1008 0
M  V30 126 C -1.4113 -8.2401 5.1952 0
M  V30 127 C -1.3931 -9.6286 5.0334 0
M  V30 128 C -1.3910 -10.1944 3.7823 0
M  V30 129 C -1.4335 -9.3741 2.6409 0
M  V30 130 C -1.4149 -9.8906 1.3253 0
M  V30 131 C -1.4735 -9.0395 0.2605 0
M  V30 132 N -1.5778 -7.6969 0.4174 0
M  V30 133 C -1.5773 -7.1752 1.6282 0
M  V30 134 C -1.4865 -7.9574 2.7899 0
M  V30 135 H -1.3882 -7.8192 6.1888 0
M  V30 136 H -1.3667 -10.2576 5.9101 0
M  V30 137 H -1.3557 -11.2656 3.6609 0
M  V30 138 H -1.3511 -10.9567 1.1764 0
M  V30 139 H -1.4385 -9.4025 -0.7652 0
M  V30 140 H -1.6593 -6.0931 1.7061 0
M  V30 141 C -5.0286 2.4961 1.4526 0
M  V30 142 C -4.7526 3.6456 1.7104 0
M  V30 143 C -4.3818 4.9589 2.0544 0
M  V30 144 C -5.2449 5.7876 2.7506 0
M  V30 145 C -4.8514 7.0720 3.1432 0
M  V30 146 C -3.5914 7.5396 2.8703 0
M  V30 147 C -2.6827 6.7277 2.1586 0
M  V30 148 C -1.3602 7.1286 1.8887 0
M  V30 149 N -0.5114 6.3732 1.2244 0
M  V30 150 C -0.9105 5.1733 0.7317 0
M  V30 151 C -2.1623 4.6796 0.9623 0
M  V30 152 C -3.0829 5.4344 1.7173 0
M  V30 153 H -6.2341 5.4338 2.9987 0
M  V30 154 H -5.5530 7.6915 3.6804 0
M  V30 155 H -3.2858 8.5218 3.1937 0
M  V30 156 H -0.9974 8.0919 2.2385 0
M  V30 157 H -0.1674 4.6358 0.1457 0
M  V30 158 H -2.4618 3.7166 0.5813 0
M  V30 159 C -5.3283 1.1526 1.1577 0
M  V30 160 C -4.3622 0.3356 0.5580 0
M  V30 161 C -4.6471 -0.9808 0.2749 0
M  V30 162 C -5.9060 -1.5109 0.5808 0
M  V30 163 C -6.8720 -0.6944 1.1815 0
M  V30 164 C -6.5859 0.6221 1.4682 0
M  V30 165 H -3.3956 0.7486 0.3166 0
M  V30 166 H -3.9094 -1.6099 -0.1965 0
M  V30 167 H -7.8434 -1.1033 1.4165 0
M  V30 168 H -7.3315 1.2520 1.9299 0
M  V30 169 C -6.2172 -2.8460 0.2614 0
M  V30 170 C -6.4910 -3.9858 -0.0402 0
M  V30 171 C -6.8921 -5.2695 -0.4514 0
M  V30 172 C -8.2372 -5.5954 -0.4705 0
M  V30 173 C -8.6720 -6.8366 -0.9449 0
M  V30 174 C -7.7787 -7.7628 -1.4240 0
M  V30 175 C -6.4012 -7.4799 -1.4144 0
M  V30 176 C -5.4299 -8.3808 -1.9069 0
M  V30 177 C -4.1068 -8.0524 -1.8485 0
M  V30 178 N -3.6776 -6.8888 -1.2999 0
M  V30 179 C -4.5542 -6.0117 -0.8521 0
M  V30 180 C -5.9393 -6.2332 -0.9003 0
M  V30 181 H -8.9612 -4.8737 -0.1245 0
M  V30 182 H -9.7288 -7.0562 -0.9447 0
M  V30 183 H -8.1198 -8.7102 -1.8109 0
M  V30 184 H -5.7462 -9.3217 -2.3280 0
M  V30 185 H -3.3354 -8.7131 -2.2399 0
M  V30 186 H -4.1656 -5.0904 -0.4237 0
M  V30 END ATOM
M  V30 BEGIN BOND
M  V30 1 3 3 4
M  V30 2 1 4 5
M  V30 3 2 5 6
M  V30 4 1 6 7
M  V30 5 2 7 8
M  V30 6 1 8 9
M  V30 7 2 9 10
M  V30 8 1 10 11
M  V30 9 2 11 12
M  V30 10 1 12 13
M  V30 11 2 13 14
M  V30 12 1 14 5
M  V30 13 1 14 9
M  V30 14 1 6 15
M  V30 15 1 7 16
M  V30 16 1 8 17
M  V30 17 1 10 18
M  V30 18 1 12 19
M  V30 19 1 13 20
M  V30 20 2 21 22
M  V30 21 1 22 23
M  V30 22 2 23 24
M  V30 23 1 24 25
M  V30 24 2 25 26
M  V30 25 1 26 21
M  V30 26 1 22 27
M  V30 27 1 23 28
M  V30 28 1 25 29
M  V30 29 1 26 30
M  V30 30 3 31 32
M  V30 31 1 32 33
M  V30 32 2 33 34
M  V30 33 1 34 35
M  V30 34 2 35 36
M  V30 35 1 36 37
M  V30 36 2 37 38
M  V30 37 1 38 39
M  V30 38 2 39 40
M  V30 39 1 40 41
M  V30 40 2 41 42
M  V30 41 1 42 33
M  V30 42 1 42 37
M  V30 43 1 34 43
M  V30 44 1 35 44
M  V30 45 1 36 45
M  V30 46 1 38 46
M  V30 47 1 39 47
M  V30 48 1 41 48
M  V30 49 1 3 21
M  V30 50 1 24 31
M  V30 51 3 49 50
M  V30 52 1 50 51
M  V30 53 2 51 52
M  V30 54 1 52 53
M  V30 55 2 53 54
M  V30 56 1 54 55
M  V30 57 2 55 56
M  V30 58 1 56 57
M  V30 59 2 57 58
M  V30 60 1 58 59
M  V30 61 2 59 60
M  V30 62 1 60 51
M  V30 63 1 60 55
M  V30 64 1 52 61
M  V30 65 1 53 62
M  V30 66 1 54 63
M  V30 67 1 56 64
M  V30 68 1 58 65
M  V30 69 1 59 66
M  V30 70 2 67 68
M  V30 71 1 68 69
M  V30 72 2 69 70
M  V30 73 1 70 71
M  V30 74 2 71 72
M  V30 75 1 72 67
M  V30 76 1 68 73
M  V30 77 1 69 74
M  V30 78 1 71 75
M  V30 79 1 72 76
M  V30 80 3 77 78
M  V30 81 1 78 79
M  V30 82 2 79 80
M  V30 83 1 80 81
M  V30 84 2 81 82
M  V30 85 1 82 83
M  V30 86 2 83 84
M  V30 87 1 84 85
M  V30 88 2 85 86
M  V30 89 1 86 87
M  V30 90 2 87 88
M  V30 91 1 88 79
M  V30 92 1 88 83
M  V30 93 1 80 89
M  V30 94 1 81 90
M  V30 95 1 82 91
M  V30 96 1 84 92
M  V30 97 1 85 93
M  V30 98 1 87 94
M  V30 99 1 49 67
M  V30 100 1 70 77
M  V30 101 3 95 96
M  V30 102 1 96 97
M  V30 103 2 97 98
M  V30 104 1 98 99
M  V30 105 2 99 100
M  V30 106 1 100 101
M  V30 107 2 101 102
M  V30 108 1 102 103
M  V30 109 2 103 104
M  V30 110 1 104 105
M  V30 111 2 105 106
M  V30 112 1 106 97
M  V30 113 1 106 101
M  V30 114 1 98 107
M  V30 115 1 99 108
M  V30 116 1 100 109
M  V30 117 1 102 110
M  V30 118 1 104 111
M  V30 119 1 105 112
M  V30 120 2 113 114
M  V30 121 1 114 115
M  V30 122 2 115 116
M  V30 123 1 116 117
M  V30 124 2 117 118
M  V30 125 1 118 113
M  V30 126 1 114 119
M  V30 127 1 115 120
M  V30 128 1 117 121
M  V30 129 1 118 122
M  V30 130 3 123 124
M  V30 131 1 124 125
M  V30 132 2 125 126
M  V30 133 1 126 127
M  V30 134 2 127 128
M  V30 135 1 128 129
M  V30 136 2 129 130
M  V30 137 1 130 131
M  V30 138 2 131 132
M  V30 139 1 132 133
M  V30 140 2 133 134
M  V30 141 1 134 125
M  V30 142 1 134 129
M  V30 143 1 126 135
M  V30 144 1 127 136
M  V30 145 1 128 137
M  V30 146 1 130 138
M  V30 147 1 131 139
M  V30 148 1 133 140
M  V30 149 1 95 113
M  V30 150 1 116 123
M  V30 151 3 141 142
M  V30 152 1 142 143
M  V30 153 2 143 144
M  V30 154 1 144 145
M  V30 155 2 145 146
M  V30 156 1 146 147
M  V30 157 2 147 148
M  V30 158 1 148 149
M  V30 159 2 149 150
M  V30 160 1 150 151
M  V30 161 2 151 152
M  V30 162 1 152 143
M  V30 163 1 152 147
M  V30 164 1 144 153
M  V30 165 1 145 154
M  V30 166 1 146 155
M  V30 167 1 148 156
M  V30 168 1 150 157
M  V30 169 1 151 158
M  V30 170 2 159 160
M  V30 171 1 160 161
M  V30 172 2 161 162
M  V30 173 1 162 163
M  V30 174 2 163 164
M  V30 175 1 164 159
M  V30 176 1 160 165
M  V30 177 1 161 166
M  V30 178 1 163 167
M  V30 179 1 164 168
M  V30 180 3 169 170
M  V30 181 1 170 171
M  V30 182 2 171 172
M  V30 183 1 172 173
M  V30 184 2 173 174
M  V30 185 1 174 175
M  V30 186 2 175 176
M  V30 187 1 176 177
M  V30 188 2 177 178
M  V30 189 1 178 179
M  V30 190 2 179 180
M  V30 191 1 180 171
M  V30 192 1 180 175
M  V30 193 1 172 181
M  V30 194 1 173 182
M  V30 195 1 174 183
M  V30 196 1 176 184
M  V30 197 1 177 185
M  V30 198 1 179 186
M  V30 199 1 141 159
M  V30 200 1 162 169
M  V30 201 9 40 1
M  V30 202 9 86 1
M  V30 203 9 103 1
M  V30 204 9 149 1
M  V30 205 9 11 2
M  V30 206 9 57 2
M  V30 207 9 132 2
M  V30 208 9 178 2
M  V30 END BOND
M  V30 END CTAB
M  END

$$$$
