
     RDKit          3D

  0  0  0  0  0  0  0  0  0  0999 V3000
M  V30 BEGIN CTAB
M  V30 COUNTS 186 208 0 0 0
M  V30 BEGIN ATOM
M  V30 1 Pd 3.8786 5.0563 3.1420 0 CHG=2
M  V30 2 Pd -3.9616 -4.6732 -2.9116 0 CHG=2
M  V30 3 C 3.2763 -4.3779 -0.2701 0
M  V30 4 C 2.5863 -5.2402 -0.7642 0
M  V30 5 C 1.7360 -6.2307 -1.2898 0
M  V30 6 C 2.0824 -7.5701 -1.2436 0
M  V30 7 C 1.2088 -8.5575 -1.7130 0
M  V30 8 C -0.0261 -8.2297 -2.2117 0
M  V30 9 C -0.4159 -6.8752 -2.2805 0
M  V30 10 C -1.6868 -6.4752 -2.7361 0
M  V30 11 N -2.0520 -5.2124 -2.8015 0
M  V30 12 C -1.1760 -4.2329 -2.4626 0
M  V30 13 C 0.0702 -4.5150 -1.9817 0
M  V30 14 C 0.4788 -5.8570 -1.8440 0
M  V30 15 H 3.0391 -7.8560 -0.8334 0
M  V30 16 H 1.5151 -9.5912 -1.6653 0
M  V30 17 H -0.7041 -8.9957 -2.5524 0
M  V30 18 H -2.4173 -7.2190 -3.0444 0
M  V30 19 H -1.5348 -3.2145 -2.5988 0
M  V30 20 H 0.7505 -3.7282 -1.6982 0
M  V30 21 C 4.0604 -3.3637 0.3119 0
M  V30 22 C 5.3060 -3.6654 0.8745 0
M  V30 23 C 6.0670 -2.6698 1.4464 0
M  V30 24 C 5.5979 -1.3506 1.4714 0
M  V30 25 C 4.3500 -1.0507 0.9129 0
M  V30 26 C 3.5911 -2.0447 0.3381 0
M  V30 27 H 5.6687 -4.6822 0.8537 0
M  V30 28 H 7.0301 -2.9009 1.8766 0
M  V30 29 H 3.9966 -0.0323 0.9256 0
M  V30 30 H 2.6325 -1.8152 -0.0995 0
M  V30 31 C 6.3956 -0.3335 2.0285 0
M  V30 32 C 7.0910 0.5479 2.4810 0
M  V30 33 C 7.9764 1.5424 2.9335 0
M  V30 34 C 9.3154 1.2404 3.1122 0
M  V30 35 C 10.2331 2.2256 3.4884 0
M  V30 36 C 9.8369 3.5272 3.6736 0
M  V30 37 C 8.4847 3.8789 3.5140 0
M  V30 38 C 8.0123 5.2014 3.6736 0
M  V30 39 C 6.6831 5.4708 3.5247 0
M  V30 40 N 5.7775 4.4983 3.2543 0
M  V30 41 C 6.1821 3.2565 3.0739 0
M  V30 42 C 7.5307 2.8788 3.1659 0
M  V30 43 H 9.6563 0.2299 2.9458 0
M  V30 44 H 11.2695 1.9535 3.6186 0
M  V30 45 H 10.5519 4.2893 3.9411 0
M  V30 46 H 8.7111 5.9878 3.9102 0
M  V30 47 H 6.2901 6.4816 3.6181 0
M  V30 48 H 5.4220 2.5097 2.8554 0
M  V30 49 C -1.3731 -3.4591 4.2546 0
M  V30 50 C -2.0112 -4.3350 3.7168 0
M  V30 51 C -2.7045 -5.3595 3.0444 0
M  V30 52 C -2.9159 -6.5914 3.6383 0
M  V30 53 C -3.5503 -7.6276 2.9432 0
M  V30 54 C -3.9634 -7.4595 1.6466 0
M  V30 55 C -3.7751 -6.2151 1.0079 0
M  V30 56 C -4.1381 -5.9901 -0.3337 0
M  V30 57 N -3.9689 -4.8286 -0.9298 0
M  V30 58 C -3.4650 -3.7765 -0.2369 0
M  V30 59 C -3.0532 -3.8973 1.0594 0
M  V30 60 C -3.1658 -5.1399 1.7154 0
M  V30 61 H -2.5777 -6.7569 4.6500 0
M  V30 62 H -3.7000 -8.5740 3.4397 0
M  V30 63 H -4.4325 -8.2675 1.1082 0
M  V30 64 H -4.5708 -6.7931 -0.9257 0
M  V30 65 H -3.4151 -2.8354 -0.7802 0
M  V30 66 H -2.6398 -3.0566 1.5930 0
M  V30 67 C -0.6320 -2.4228 4.8546 0
M  V30 68 C -0.5138 -2.3458 6.2469 0
M  V30 69 C 0.1942 -1.3153 6.8248 0
M  V30 70 C 0.8045 -0.3420 6.0235 0
M  V30 71 C 0.7033 -0.4324 4.6305 0
M  V30 72 C -0.0096 -1.4583 4.0528 0
M  V30 73 H -0.9883 -3.0931 6.8653 0
M  V30 74 H 0.2778 -1.2492 7.8994 0
M  V30 75 H 1.1852 0.3103 4.0154 0
M  V30 76 H -0.0933 -1.5301 2.9800 0
M  V30 77 C 1.4817 0.7324 6.6303 0
M  V30 78 C 2.0245 1.6750 7.1616 0
M  V30 79 C 2.5730 2.7699 7.8528 0
M  V30 80 C 2.5460 2.7890 9.2369 0
M  V30 81 C 3.0214 3.8914 9.9532 0
M  V30 82 C 3.5125 4.9975 9.3045 0
M  V30 83 C 3.5656 5.0213 7.8994 0
M  V30 84 C 4.0414 6.1342 7.1696 0
M  V30 85 C 4.0803 6.0866 5.8066 0
M  V30 86 N 3.6997 4.9849 5.1140 0
M  V30 87 C 3.2305 3.9342 5.7575 0
M  V30 88 C 3.1159 3.8914 7.1556 0
M  V30 89 H 2.1427 1.9413 9.7693 0
M  V30 90 H 2.9859 3.8699 11.0316 0
M  V30 91 H 3.8590 5.8548 9.8598 0
M  V30 92 H 4.3669 7.0147 7.7001 0
M  V30 93 H 4.4195 6.9339 5.2135 0
M  V30 94 H 2.9337 3.0741 5.1608 0
M  V30 95 C -3.2709 4.8585 0.2479 0
M  V30 96 C -2.5698 5.7204 0.7267 0
M  V30 97 C -1.7055 6.7066 1.2390 0
M  V30 98 C -2.0062 8.0526 1.1251 0
M  V30 99 C -1.1150 9.0316 1.5798 0
M  V30 100 C 0.0912 8.6867 2.1333 0
M  V30 101 C 0.4318 7.3246 2.2764 0
M  V30 102 C 1.6702 6.9045 2.7979 0
M  V30 103 N 1.9876 5.6346 2.9380 0
M  V30 104 C 1.0899 4.6702 2.6136 0
M  V30 105 C -0.1268 4.9704 2.0714 0
M  V30 106 C -0.4816 6.3172 1.8535 0
M  V30 107 H -2.9387 8.3506 0.6704 0
M  V30 108 H -1.3847 10.0713 1.4764 0
M  V30 109 H 0.7837 9.4450 2.4626 0
M  V30 110 H 2.4150 7.6379 3.0978 0
M  V30 111 H 1.4025 3.6485 2.8173 0
M  V30 112 H -0.8243 4.1930 1.8036 0
M  V30 113 C -4.0660 3.8344 -0.3019 0
M  V30 114 C -3.4857 2.6025 -0.6278 0
M  V30 115 C -4.2579 1.5896 -1.1501 0
M  V30 116 C -5.6295 1.7819 -1.3517 0
M  V30 117 C -6.2066 3.0193 -1.0396 0
M  V30 118 C -5.4330 4.0354 -0.5231 0
M  V30 119 H -2.4292 2.4578 -0.4674 0
M  V30 120 H -3.8134 0.6410 -1.4037 0
M  V30 121 H -7.2635 3.1699 -1.2015 0
M  V30 122 H -5.8796 4.9876 -0.2780 0
M  V30 123 C -6.4424 0.7377 -1.8313 0
M  V30 124 C -7.1568 -0.1665 -2.2020 0
M  V30 125 C -8.0615 -1.1820 -2.5596 0
M  V30 126 C -9.4124 -0.8939 -2.6528 0
M  V30 127 C -10.3458 -1.8942 -2.9398 0
M  V30 128 C -9.9526 -3.1975 -3.1192 0
M  V30 129 C -8.5902 -3.5368 -3.0403 0
M  V30 130 C -8.1202 -4.8606 -3.1962 0
M  V30 131 C -6.7827 -5.1199 -3.1227 0
M  V30 132 N -5.8689 -4.1371 -2.9297 0
M  V30 133 C -6.2690 -2.8924 -2.7592 0
M  V30 134 C -7.6227 -2.5223 -2.7819 0
M  V30 135 H -9.7491 0.1188 -2.4922 0
M  V30 136 H -11.3907 -1.6319 -3.0063 0
M  V30 137 H -10.6778 -3.9704 -3.3197 0
M  V30 138 H -8.8274 -5.6561 -3.3691 0
M  V30 139 H -6.3893 -6.1306 -3.2157 0
M  V30 140 H -5.5013 -2.1374 -2.6040 0
M  V30 141 C 1.5193 3.6732 -4.0665 0
M  V30 142 C 2.1731 4.5439 -3.5389 0
M  V30 143 C 2.8805 5.5664 -2.8797 0
M  V30 144 C 3.1586 6.7667 -3.5109 0
M  V30 145 C 3.8097 7.8037 -2.8333 0
M  V30 146 C 4.1712 7.6707 -1.5171 0
M  V30 147 C 3.9099 6.4613 -0.8385 0
M  V30 148 C 4.2115 6.2775 0.5245 0
M  V30 149 N 3.9692 5.1500 1.1590 0
M  V30 150 C 3.4471 4.0915 0.4892 0
M  V30 151 C 3.0927 4.1747 -0.8266 0
M  V30 152 C 3.2847 5.3830 -1.5270 0
M  V30 153 H 2.8627 6.9052 -4.5397 0
M  V30 154 H 4.0141 8.7236 -3.3594 0
M  V30 155 H 4.6535 8.4805 -0.9933 0
M  V30 156 H 4.6549 7.0853 1.1014 0
M  V30 157 H 3.3305 3.1791 1.0709 0
M  V30 158 H 2.6616 3.3324 -1.3431 0
M  V30 159 C 0.7481 2.6563 -4.6605 0
M  V30 160 C 0.4023 1.5184 -3.9216 0
M  V30 161 C -0.3585 0.5249 -4.4948 0
M  V30 162 C -0.7884 0.6434 -5.8216 0
M  V30 163 C -0.4436 1.7817 -6.5606 0
M  V30 164 C 0.3146 2.7777 -5.9860 0
M  V30 165 H 0.7410 1.4263 -2.9018 0
M  V30 166 H -0.6177 -0.3575 -3.9323 0
M  V30 167 H -0.7746 1.8725 -7.5844 0
M  V30 168 H 0.5818 3.6547 -6.5564 0
M  V30 169 C -1.5360 -0.3847 -6.4262 0
M  V30 170 C -2.1543 -1.2829 -6.9517 0
M  V30 171 C -2.7918 -2.3322 -7.6375 0
M  V30 172 C -2.8459 -2.3159 -9.0205 0
M  V30 173 C -3.4061 -3.3804 -9.7331 0
M  V30 174 C -3.9024 -4.4831 -9.0827 0
M  V30 175 C -3.8785 -4.5394 -7.6777 0
M  V30 176 C -4.3575 -5.6500 -6.9465 0
M  V30 177 C -4.3242 -5.6312 -5.5827 0
M  V30 178 N -3.8697 -4.5585 -4.8885 0
M  V30 179 C -3.3917 -3.5134 -5.5346 0
M  V30 180 C -3.3437 -3.4463 -6.9357 0
M  V30 181 H -2.4376 -1.4724 -9.5557 0
M  V30 182 H -3.4313 -3.3330 -10.8111 0
M  V30 183 H -4.3126 -5.3128 -9.6368 0
M  V30 184 H -4.7437 -6.5058 -7.4768 0
M  V30 185 H -4.6636 -6.4790 -4.9903 0
M  V30 186 H -3.0343 -2.6771 -4.9377 0
M  V30 END ATOM
M  V30 BEGIN BOND
M  V30 1 3 3 4
M  V30 2 1 4 5
M  V30 3 2 5 6
M  V30 4 1 6 7
M  V30 5 2 7 8
M  V30 6 1 8 9
M  V30 7 2 9 10
M  V30 8 1 10 11
M  V30 9 2 11 12
M  V30 10 1 12 13
M  V30 11 2 13 14
M  V30 12 1 14 5
M  V30 13 1 14 9
M  V30 14 1 6 15
M  V30 15 1 7 16
M  V30 16 1 8 17
M  V30 17 1 10 18
M  V30 18 1 12 19
M  V30 19 1 13 20
M  V30 20 2 21 22
M  V30 21 1 22 23
M  V30 22 2 23 24
M  V30 23 1 24 25
M  V30 24 2 25 26
M  V30 25 1 26 21
M  V30 26 1 22 27
M  V30 27 1 23 28
M  V30 28 1 25 29
M  V30 29 1 26 30
M  V30 30 3 31 32
M  V30 31 1 32 33
M  V30 32 2 33 34
M  V30 33 1 34 35
M  V30 34 2 35 36
M  V30 35 1 36 37
M  V30 36 2 37 38
M  V30 37 1 38 39
M  V30 38 2 39 40
M  V30 39 1 40 41
M  V30 40 2 41 42
M  V30 41 1 42 33
M  V30 42 1 42 37
M  V30 43 1 34 43
M  V30 44 1 35 44
M  V30 45 1 36 45
M  V30 46 1 38 46
M  V30 47 1 39 47
M  V30 48 1 41 48
M  V30 49 1 3 21
M  V30 50 1 24 31
M  V30 51 3 49 50
M  V30 52 1 50 51
M  V30 53 2 51 52
M  V30 54 1 52 53
M  V30 55 2 53 54
M  V30 56 1 54 55
M  V30 57 2 55 56
M  V30 58 1 56 57
M  V30 59 2 57 58
M  V30 60 1 58 59
M  V30 61 2 59 60
M  V30 62 1 60 51
M  V30 63 1 60 55
M  V30 64 1 52 61
M  V30 65 1 53 62
M  V30 66 1 54 63
M  V30 67 1 56 64
M  V30 68 1 58 65
M  V30 69 1 59 66
M  V30 70 2 67 68
M  V30 71 1 68 69
M  V30 72 2 69 70
M  V30 73 1 70 71
M  V30 74 2 71 72
M  V30 75 1 72 67
M  V30 76 1 68 73
M  V30 77 1 69 74
M  V30 78 1 71 75
M  V30 79 1 72 76
M  V30 80 3 77 78
M  V30 81 1 78 79
M  V30 82 2 79 80
M  V30 83 1 80 81
M  V30 84 2 81 82
M  V30 85 1 82 83
M  V30 86 2 83 84
M  V30 87 1 84 85
M  V30 88 2 85 86
M  V30 89 1 86 87
M  V30 90 2 87 88
M  V30 91 1 88 79
M  V30 92 1 88 83
M  V30 93 1 80 89
M  V30 94 1 81 90
M  V30 95 1 82 91
M  V30 96 1 84 92
M  V30 97 1 85 93
M  V30 98 1 87 94
M  V30 99 1 49 67
M  V30 100 1 70 77
M  V30 101 3 95 96
M  V30 102 1 96 97
M  V30 103 2 97 98
M  V30 104 1 98 99
M  V30 105 2 99 100
M  V30 106 1 100 101
M  V30 107 2 101 102
M  V30 108 1 102 103
M  V30 109 2 103 104
M  V30 110 1 104 105
M  V30 111 2 105 106
M  V30 112 1 106 97
M  V30 113 1 106 101
M  V30 114 1 98 107
M  V30 115 1 99 108
M  V30 116 1 100 109
M  V30 117 1 102 110
M  V30 118 1 104 111
M  V30 119 1 105 112
M  V30 120 2 113 114
M  V30 121 1 114 115
M  V30 122 2 115 116
M  V30 123 1 116 117
M  V30 124 2 117 118
M  V30 125 1 118 113
M  V30 126 1 114 119
M  V30 127 1 115 120
M  V30 128 1 117 121
M  V30 129 1 118 122
M  V30 130 3 123 124
M  V30 131 1 124 125
M  V30 132 2 125 126
M  V30 133 1 126 127
M  V30 134 2 127 128
M  V30 135 1 128 129
M  V30 136 2 129 130
M  V30 137 1 130 131
M  V30 138 2 131 132
M  V30 139 1 132 133
M  V30 140 2 133 134
M  V30 141 1 134 125
M  V30 142 1 134 129
M  V30 143 1 126 135
M  V30 144 1 127 136
M  V30 145 1 128 137
M  V30 146 1 130 138
M  V30 147 1 131 139
M  V30 148 1 133 140
M  V30 149 1 95 113
M  V30 150 1 116 123
M  V30 151 3 141 142
M  V30 152 1 142 143
M  V30 153 2 143 144
M  V30 154 1 144 145
M  V30 155 2 145 146
M  V30 156 1 146 147
M  V30 157 2 147 148
M  V30 158 1 148 149
M  V30 159 2 149 150
M  V30 160 1 150 151
M  V30 161 2 151 152
M  V30 162 1 152 143
M  V30 163 1 152 147
M  V30 164 1 144 153
M  V30 165 1 145 154
M  V30 166 1 146 155
M  V30 167 1 148 156
M  V30 168 1 150 157
M  V30 169 1 151 158
M  V30 170 2 159 160
M  V30 171 1 160 161
M  V30 172 2 161 162
M  V30 173 1 162 163
M  V30 174 2 163 164
M  V30 175 1 164 159
M  V30 176 1 160 165
M  V30 177 1 161 166
M  V30 178 1 163 167
M  V30 179 1 164 168
M  V30 180 3 169 170
M  V30 181 1 170 171
M  V30 182 2 171 172
M  V30 183 1 172 173
M  V30 184 2 173 174
M  V30 185 1 174 175
M  V30 186 2 175 176
M  V30 187 1 176 177
M  V30 188 2 177 178
M  V30 189 1 178 179
M  V30 190 2 179 180
M  V30 191 1 180 171
M  V30 192 1 180 175
M  V30 193 1 172 181
M  V30 194 1 173 182
M  V30 195 1 174 183
M  V30 196 1 176 184
M  V30 197 1 177 185
M  V30 198 1 179 186
M  V30 199 1 141 159
M  V30 200 1 162 169
M  V30 201 9 40 1
M  V30 202 9 86 1
M  V30 203 9 103 1
M  V30 204 9 149 1
M  V30 205 9 11 2
M  V30 206 9 57 2
M  V30 207 9 132 2
M  V30 208 9 178 2
M  V30 END BOND
M  V30 END CTAB
M  END

$$$$
