
     RDKit          3D

  0  0  0  0  0  0  0  0  0  0999 V3000
M  V30 BEGIN CTAB
M  V30 COUNTS 186 208 0 0 0
M  V30 BEGIN ATOM
M  V30 1 Pd -4.5329 4.1591 3.2152 0 CHG=2
M  V30 2 Pd 3.7662 -4.4478 -3.8434 0 CHG=2
M  V30 3 C 4.7782 2.1560 0.0059 0
M  V30 4 C 5.5121 1.3909 -0.5771 0
M  V30 5 C 6.3407 0.4495 -1.2155 0
M  V30 6 C 7.7170 0.4942 -1.0737 0
M  V30 7 C 8.5344 -0.4782 -1.6609 0
M  V30 8 C 7.9951 -1.5175 -2.3751 0
M  V30 9 C 6.5968 -1.5971 -2.5470 0
M  V30 10 C 5.9770 -2.6631 -3.2270 0
M  V30 11 N 4.6730 -2.7389 -3.3889 0
M  V30 12 C 3.8719 -1.7444 -2.9295 0
M  V30 13 C 4.3699 -0.6816 -2.2321 0
M  V30 14 C 5.7556 -0.5925 -1.9894 0
M  V30 15 H 8.1645 1.2888 -0.4961 0
M  V30 16 H 9.6036 -0.4081 -1.5329 0
M  V30 17 H 8.6278 -2.2760 -2.8076 0
M  V30 18 H 6.5752 -3.4729 -3.6373 0
M  V30 19 H 2.8125 -1.8538 -3.1534 0
M  V30 20 H 3.7211 0.0929 -1.8561 0
M  V30 21 C 3.9095 3.0292 0.6876 0
M  V30 22 C 4.4214 4.0739 1.4659 0
M  V30 23 C 3.5668 4.9226 2.1342 0
M  V30 24 C 2.1811 4.7437 2.0419 0
M  V30 25 C 1.6702 3.6958 1.2673 0
M  V30 26 C 2.5238 2.8499 0.5964 0
M  V30 27 H 5.4899 4.2131 1.5359 0
M  V30 28 H 3.9608 5.7316 2.7312 0
M  V30 29 H 0.6025 3.5672 1.1909 0
M  V30 30 H 2.1327 2.0462 -0.0070 0
M  V30 31 C 1.3138 5.6348 2.7014 0
M  V30 32 C 0.5650 6.4160 3.2438 0
M  V30 33 C -0.2559 7.4040 3.8162 0
M  V30 34 C 0.2992 8.6016 4.2327 0
M  V30 35 C -0.5013 9.6315 4.7359 0
M  V30 36 C -1.8651 9.4928 4.8144 0
M  V30 37 C -2.4727 8.2897 4.4129 0
M  V30 38 C -3.8708 8.0862 4.4524 0
M  V30 39 C -4.3940 6.8862 4.0678 0
M  V30 40 N -3.6101 5.8534 3.6705 0
M  V30 41 C -2.3033 6.0120 3.5967 0
M  V30 42 C -1.6667 7.2172 3.9315 0
M  V30 43 H 1.3661 8.7451 4.1555 0
M  V30 44 H -0.0337 10.5517 5.0514 0
M  V30 45 H -2.4819 10.2981 5.1813 0
M  V30 46 H -4.5126 8.8861 4.7854 0
M  V30 47 H -5.4673 6.7046 4.0642 0
M  V30 48 H -1.7137 5.1583 3.2697 0
M  V30 49 C 2.6561 -2.8750 3.6280 0
M  V30 50 C 3.4165 -3.5858 3.0115 0
M  V30 51 C 4.3193 -4.3588 2.2567 0
M  V30 52 C 5.4434 -4.9190 2.8379 0
M  V30 53 C 6.3710 -5.6342 2.0714 0
M  V30 54 C 6.2040 -5.7840 0.7187 0
M  V30 55 C 5.0660 -5.2360 0.0890 0
M  V30 56 C 4.8564 -5.3182 -1.3008 0
M  V30 57 N 3.7928 -4.8130 -1.8895 0
M  V30 58 C 2.8233 -4.2201 -1.1482 0
M  V30 59 C 2.9437 -4.0615 0.2026 0
M  V30 60 C 4.0944 -4.5390 0.8624 0
M  V30 61 H 5.6104 -4.7940 3.8970 0
M  V30 62 H 7.2345 -6.0589 2.5597 0
M  V30 63 H 6.9324 -6.3175 0.1290 0
M  V30 64 H 5.5905 -5.8068 -1.9371 0
M  V30 65 H 1.9476 -3.8850 -1.6998 0
M  V30 66 H 2.1725 -3.5740 0.7771 0
M  V30 67 C 1.7559 -2.0415 4.3195 0
M  V30 68 C 1.6176 -2.1400 5.7085 0
M  V30 69 C 0.7177 -1.3360 6.3726 0
M  V30 70 C -0.0597 -0.4116 5.6635 0
M  V30 71 C 0.0951 -0.2993 4.2771 0
M  V30 72 C 0.9895 -1.1072 3.6122 0
M  V30 73 H 2.2132 -2.8560 6.2551 0
M  V30 74 H 0.6030 -1.4181 7.4432 0
M  V30 75 H -0.4947 0.4222 3.7352 0
M  V30 76 H 1.1097 -1.0268 2.5435 0
M  V30 77 C -1.0105 0.3672 6.3495 0
M  V30 78 C -1.8550 1.0012 6.9414 0
M  V30 79 C -2.8572 1.6464 7.6876 0
M  V30 80 C -2.9678 1.3971 9.0449 0
M  V30 81 C -3.9936 1.9694 9.8029 0
M  V30 82 C -4.9346 2.7817 9.2198 0
M  V30 83 C -4.8593 3.0687 7.8452 0
M  V30 84 C -5.8050 3.8810 7.1793 0
M  V30 85 C -5.6654 4.1324 5.8456 0
M  V30 86 N -4.6226 3.6477 5.1273 0
M  V30 87 C -3.7309 2.8691 5.7076 0
M  V30 88 C -3.7997 2.5199 7.0653 0
M  V30 89 H -2.2543 0.7428 9.5219 0
M  V30 90 H -4.0471 1.7535 10.8590 0
M  V30 91 H -5.7370 3.2047 9.8035 0
M  V30 92 H -6.6327 4.2927 7.7344 0
M  V30 93 H -6.3878 4.7348 5.2977 0
M  V30 94 H -2.9132 2.5002 5.0919 0
M  V30 95 C -5.6066 -2.2976 -0.8701 0
M  V30 96 C -6.3368 -1.5193 -0.3002 0
M  V30 97 C -7.1576 -0.5632 0.3276 0
M  V30 98 C -8.5268 -0.5514 0.1270 0
M  V30 99 C -9.3315 0.4386 0.7029 0
M  V30 100 C -8.7848 1.4378 1.4666 0
M  V30 101 C -7.3935 1.4561 1.7034 0
M  V30 102 C -6.7648 2.4757 2.4432 0
M  V30 103 N -5.4682 2.4917 2.6703 0
M  V30 104 C -4.6873 1.4771 2.2212 0
M  V30 105 C -5.1931 0.4566 1.4680 0
M  V30 106 C -6.5676 0.4336 1.1556 0
M  V30 107 H -8.9785 -1.3128 -0.4906 0
M  V30 108 H -10.3958 0.4143 0.5264 0
M  V30 109 H -9.4061 2.2104 1.8906 0
M  V30 110 H -7.3495 3.2984 2.8479 0
M  V30 111 H -3.6382 1.5301 2.5035 0
M  V30 112 H -4.5579 -0.3350 1.1042 0
M  V30 113 C -4.7323 -3.1888 -1.5218 0
M  V30 114 C -3.3905 -2.8350 -1.7086 0
M  V30 115 C -2.5244 -3.7063 -2.3295 0
M  V30 116 C -2.9775 -4.9546 -2.7714 0
M  V30 117 C -4.3232 -5.3020 -2.5977 0
M  V30 118 C -5.1917 -4.4277 -1.9824 0
M  V30 119 H -3.0452 -1.8735 -1.3634 0
M  V30 120 H -1.4915 -3.4356 -2.4765 0
M  V30 121 H -4.6743 -6.2623 -2.9447 0
M  V30 122 H -6.2281 -4.6982 -1.8443 0
M  V30 123 C -2.0917 -5.8788 -3.3565 0
M  V30 124 C -1.3295 -6.6965 -3.8212 0
M  V30 125 C -0.4979 -7.7232 -4.3029 0
M  V30 126 C -1.0472 -8.9492 -4.6370 0
M  V30 127 C -0.2408 -10.0119 -5.0547 0
M  V30 128 C 1.1239 -9.8775 -5.1279 0
M  V30 129 C 1.7264 -8.6487 -4.8044 0
M  V30 130 C 3.1251 -8.4484 -4.8406 0
M  V30 131 C 3.6446 -7.2260 -4.5290 0
M  V30 132 N 2.8571 -6.1704 -4.2069 0
M  V30 133 C 1.5491 -6.3224 -4.1421 0
M  V30 134 C 0.9147 -7.5455 -4.4094 0
M  V30 135 H -2.1152 -9.0872 -4.5647 0
M  V30 136 H -0.7045 -10.9529 -5.3086 0
M  V30 137 H 1.7448 -10.7059 -5.4303 0
M  V30 138 H 3.7701 -9.2688 -5.1122 0
M  V30 139 H 4.7179 -7.0440 -4.5250 0
M  V30 140 H 0.9570 -5.4493 -3.8763 0
M  V30 141 C -3.2085 2.7786 -4.2535 0
M  V30 142 C -3.9601 3.5050 -3.6442 0
M  V30 143 C -4.8573 4.2935 -2.8999 0
M  V30 144 C -5.9345 4.9175 -3.5053 0
M  V30 145 C -6.8585 5.6516 -2.7532 0
M  V30 146 C -6.7375 5.7559 -1.3911 0
M  V30 147 C -5.6509 5.1384 -0.7358 0
M  V30 148 C -5.4954 5.1665 0.6633 0
M  V30 149 N -4.4822 4.5918 1.2763 0
M  V30 150 C -3.5116 3.9762 0.5547 0
M  V30 151 C -3.5825 3.8682 -0.8044 0
M  V30 152 C -4.6807 4.4222 -1.4931 0
M  V30 153 H -6.0655 4.8303 -4.5733 0
M  V30 154 H -7.6832 6.1284 -3.2604 0
M  V30 155 H -7.4640 6.3049 -0.8135 0
M  V30 156 H -6.2311 5.6689 1.2864 0
M  V30 157 H -2.6800 3.5764 1.1317 0
M  V30 158 H -2.8143 3.3604 -1.3650 0
M  V30 159 C -2.3338 1.9190 -4.9449 0
M  V30 160 C -1.3379 1.2252 -4.2468 0
M  V30 161 C -0.4853 0.3773 -4.9164 0
M  V30 162 C -0.6052 0.2058 -6.3004 0
M  V30 163 C -1.6017 0.8988 -6.9987 0
M  V30 164 C -2.4574 1.7445 -6.3282 0
M  V30 165 H -1.2430 1.3648 -3.1816 0
M  V30 166 H 0.2895 -0.1504 -4.3839 0
M  V30 167 H -1.6934 0.7670 -8.0665 0
M  V30 168 H -3.2248 2.2800 -6.8670 0
M  V30 169 C 0.2859 -0.6315 -6.9977 0
M  V30 170 C 1.0713 -1.3298 -7.5982 0
M  V30 171 C 2.0106 -2.0521 -8.3557 0
M  V30 172 C 2.0701 -1.8738 -9.7270 0
M  V30 173 C 3.0415 -2.5203 -10.4971 0
M  V30 174 C 3.9780 -3.3373 -9.9133 0
M  V30 175 C 3.9501 -3.5568 -8.5245 0
M  V30 176 C 4.8928 -4.3720 -7.8579 0
M  V30 177 C 4.7959 -4.5600 -6.5100 0
M  V30 178 N 3.7963 -4.0105 -5.7766 0
M  V30 179 C 2.9120 -3.2240 -6.3579 0
M  V30 180 C 2.9437 -2.9335 -7.7306 0
M  V30 181 H 1.3619 -1.2150 -10.2058 0
M  V30 182 H 3.0575 -2.3576 -11.5640 0
M  V30 183 H 4.7404 -3.8160 -10.5076 0
M  V30 184 H 5.6841 -4.8371 -8.4239 0
M  V30 185 H 5.5187 -5.1626 -5.9629 0
M  V30 186 H 2.1298 -2.8018 -5.7307 0
M  V30 END ATOM
M  V30 BEGIN BOND
M  V30 1 3 3 4
M  V30 2 1 4 5
M  V30 3 2 5 6
M  V30 4 1 6 7
M  V30 5 2 7 8
M  V30 6 1 8 9
M  V30 7 2 9 10
M  V30 8 1 10 11
M  V30 9 2 11 12
M  V30 10 1 12 13
M  V30 11 2 13 14
M  V30 12 1 14 5
M  V30 13 1 14 9
M  V30 14 1 6 15
M  V30 15 1 7 16
M  V30 16 1 8 17
M  V30 17 1 10 18
M  V30 18 1 12 19
M  V30 19 1 13 20
M  V30 20 2 21 22
M  V30 21 1 22 23
M  V30 22 2 23 24
M  V30 23 1 24 25
M  V30 24 2 25 26
M  V30 25 1 26 21
M  V30 26 1 22 27
M  V30 27 1 23 28
M  V30 28 1 25 29
M  V30 29 1 26 30
M  V30 30 3 31 32
M  V30 31 1 32 33
M  V30 32 2 33 34
M  V30 33 1 34 35
M  V30 34 2 35 36
M  V30 35 1 36 37
M  V30 36 2 37 38
M  V30 37 1 38 39
M  V30 38 2 39 40
M  V30 39 1 40 41
M  V30 40 2 41 42
M  V30 41 1 42 33
M  V30 42 1 42 37
M  V30 43 1 34 43
M  V30 44 1 35 44
M  V30 45 1 36 45
M  V30 46 1 38 46
M  V30 47 1 39 47
M  V30 48 1 41 48
M  V30 49 1 3 21
M  V30 50 1 24 31
M  V30 51 3 49 50
M  V30 52 1 50 51
M  V30 53 2 51 52
M  V30 54 1 52 53
M  V30 55 2 53 54
M  V30 56 1 54 55
M  V30 57 2 55 56
M  V30 58 1 56 57
M  V30 59 2 57 58
M  V30 60 1 58 59
M  V30 61 2 59 60
M  V30 62 1 60 51
M  V30 63 1 60 55
M  V30 64 1 52 61
M  V30 65 1 53 62
M  V30 66 1 54 63
M  V30 67 1 56 64
M  V30 68 1 58 65
M  V30 69 1 59 66
M  V30 70 2 67 68
M  V30 71 1 68 69
M  V30 72 2 69 70
M  V30 73 1 70 71
M  V30 74 2 71 72
M  V30 75 1 72 67
M  V30 76 1 68 73
M  V30 77 1 69 74
M  V30 78 1 71 75
M  V30 79 1 72 76
M  V30 80 3 77 78
M  V30 81 1 78 79
M  V30 82 2 79 80
M  V30 83 1 80 81
M  V30 84 2 81 82
M  V30 85 1 82 83
M  V30 86 2 83 84
M  V30 87 1 84 85
M  V30 88 2 85 86
M  V30 89 1 86 87
M  V30 90 2 87 88
M  V30 91 1 88 79
M  V30 92 1 88 83
M  V30 93 1 80 89
M  V30 94 1 81 90
M  V30 95 1 82 91
M  V30 96 1 84 92
M  V30 97 1 85 93
M  V30 98 1 87 94
M  V30 99 1 49 67
M  V30 100 1 70 77
M  V30 101 3 95 96
M  V30 102 1 96 97
M  V30 103 2 97 98
M  V30 104 1 98 99
M  V30 105 2 99 100
M  V30 106 1 100 101
M  V30 107 2 101 102
M  V30 108 1 102 103
M  V30 109 2 103 104
M  V30 110 1 104 105
M  V30 111 2 105 106
M  V30 112 1 106 97
M  V30 113 1 106 101
M  V30 114 1 98 107
M  V30 115 1 99 108
M  V30 116 1 100 109
M  V30 117 1 102 110
M  V30 118 1 104 111
M  V30 119 1 105 112
M  V30 120 2 113 114
M  V30 121 1 114 115
M  V30 122 2 115 116
M  V30 123 1 116 117
M  V30 124 2 117 118
M  V30 125 1 118 113
M  V30 126 1 114 119
M  V30 127 1 115 120
M  V30 128 1 117 121
M  V30 129 1 118 122
M  V30 130 3 123 124
M  V30 131 1 124 125
M  V30 132 2 125 126
M  V30 133 1 126 127
M  V30 134 2 127 128
M  V30 135 1 128 129
M  V30 136 2 129 130
M  V30 137 1 130 131
M  V30 138 2 131 132
M  V30 139 1 132 133
M  V30 140 2 133 134
M  V30 141 1 134 125
M  V30 142 1 134 129
M  V30 143 1 126 135
M  V30 144 1 127 136
M  V30 145 1 128 137
M  V30 146 1 130 138
M  V30 147 1 131 139
M  V30 148 1 133 140
M  V30 149 1 95 113
M  V30 150 1 116 123
M  V30 151 3 141 142
M  V30 152 1 142 143
M  V30 153 2 143 144
M  V30 154 1 144 145
M  V30 155 2 145 146
M  V30 156 1 146 147
M  V30 157 2 147 148
M  V30 158 1 148 149
M  V30 159 2 149 150
M  V30 160 1 150 151
M  V30 161 2 151 152
M  V30 162 1 152 143
M  V30 163 1 152 147
M  V30 164 1 144 153
M  V30 165 1 145 154
M  V30 166 1 146 155
M  V30 167 1 148 156
M  V30 168 1 150 157
M  V30 169 1 151 158
M  V30 170 2 159 160
M  V30 171 1 160 161
M  V30 172 2 161 162
M  V30 173 1 162 163
M  V30 174 2 163 164
M  V30 175 1 164 159
M  V30 176 1 160 165
M  V30 177 1 161 166
M  V30 178 1 163 167
M  V30 179 1 164 168
M  V30 180 3 169 170
M  V30 181 1 170 171
M  V30 182 2 171 172
M  V30 183 1 172 173
M  V30 184 2 173 174
M  V30 185 1 174 175
M  V30 186 2 175 176
M  V30 187 1 176 177
M  V30 188 2 177 178
M  V30 189 1 178 179
M  V30 190 2 179 180
M  V30 191 1 180 171
M  V30 192 1 180 175
M  V30 193 1 172 181
M  V30 194 1 173 182
M  V30 195 1 174 183
M  V30 196 1 176 184
M  V30 197 1 177 185
M  V30 198 1 179 186
M  V30 199 1 141 159
M  V30 200 1 162 169
M  V30 201 9 40 1
M  V30 202 9 86 1
M  V30 203 9 103 1
M  V30 204 9 149 1
M  V30 205 9 11 2
M  V30 206 9 57 2
M  V30 207 9 132 2
M  V30 208 9 178 2
M  V30 END BOND
M  V30 END CTAB
M  END

$$$$
