
     RDKit          3D

  0  0  0  0  0  0  0  0  0  0999 V3000
M  V30 BEGIN CTAB
M  V30 COUNTS 186 208 0 0 0
M  V30 BEGIN ATOM
M  V30 1 Pd 0.1404 6.9783 0.8675 0 CHG=2
M  V30 2 Pd 0.4372 -6.7896 -0.9035 0 CHG=2
M  V30 3 C 5.7447 -1.1977 -0.7925 0
M  V30 4 C 5.7804 -2.4012 -0.9113 0
M  V30 5 C 5.7860 -3.8062 -0.9899 0
M  V30 6 C 6.9623 -4.5256 -0.8672 0
M  V30 7 C 6.9571 -5.9250 -0.8862 0
M  V30 8 C 5.7841 -6.6259 -1.0039 0
M  V30 9 C 4.5635 -5.9302 -1.1361 0
M  V30 10 C 3.3211 -6.5886 -1.2121 0
M  V30 11 N 2.1816 -5.9416 -1.3359 0
M  V30 12 C 2.1759 -4.5884 -1.4388 0
M  V30 13 C 3.3229 -3.8536 -1.3479 0
M  V30 14 C 4.5579 -4.5064 -1.1590 0
M  V30 15 H 7.8964 -3.9975 -0.7491 0
M  V30 16 H 7.8942 -6.4518 -0.7927 0
M  V30 17 H 5.7831 -7.7042 -0.9966 0
M  V30 18 H 3.2719 -7.6734 -1.1608 0
M  V30 19 H 1.1997 -4.1337 -1.5962 0
M  V30 20 H 3.3033 -2.7777 -1.4125 0
M  V30 21 C 5.6834 0.2009 -0.6432 0
M  V30 22 C 6.8548 0.9477 -0.4728 0
M  V30 23 C 6.7886 2.3154 -0.3229 0
M  V30 24 C 5.5490 2.9666 -0.3367 0
M  V30 25 C 4.3777 2.2184 -0.5023 0
M  V30 26 C 4.4439 0.8522 -0.6558 0
M  V30 27 H 7.8110 0.4460 -0.4639 0
M  V30 28 H 7.6921 2.8928 -0.1959 0
M  V30 29 H 3.4260 2.7244 -0.5220 0
M  V30 30 H 3.5436 0.2741 -0.7909 0
M  V30 31 C 5.4919 4.3677 -0.2155 0
M  V30 32 C 5.4412 5.5748 -0.1401 0
M  V30 33 C 5.4475 6.9811 -0.1417 0
M  V30 34 C 6.6323 7.6624 -0.3608 0
M  V30 35 C 6.6575 9.0578 -0.4429 0
M  V30 36 C 5.5040 9.7937 -0.3275 0
M  V30 37 C 4.2781 9.1455 -0.0936 0
M  V30 38 C 3.0525 9.8404 0.0193 0
M  V30 39 C 1.9012 9.1516 0.2677 0
M  V30 40 N 1.8906 7.8069 0.4432 0
M  V30 41 C 3.0095 7.1203 0.3212 0
M  V30 42 C 4.2414 7.7259 0.0286 0
M  V30 43 H 7.5483 7.1046 -0.4820 0
M  V30 44 H 7.5998 9.5553 -0.6145 0
M  V30 45 H 5.5238 10.8687 -0.4147 0
M  V30 46 H 3.0398 10.9125 -0.0951 0
M  V30 47 H 0.9378 9.6535 0.3373 0
M  V30 48 H 2.9539 6.0437 0.4665 0
M  V30 49 C 2.4333 -1.9979 4.8047 0
M  V30 50 C 2.5092 -3.1926 4.6303 0
M  V30 51 C 2.6295 -4.5708 4.3686 0
M  V30 52 C 3.4111 -5.3866 5.1679 0
M  V30 53 C 3.5783 -6.7436 4.8678 0
M  V30 54 C 2.9889 -7.3006 3.7621 0
M  V30 55 C 2.1763 -6.5048 2.9265 0
M  V30 56 C 1.5771 -7.0046 1.7545 0
M  V30 57 N 0.8138 -6.2659 0.9768 0
M  V30 58 C 0.5426 -4.9801 1.3144 0
M  V30 59 C 1.0983 -4.3904 2.4135 0
M  V30 60 C 1.9661 -5.1319 3.2407 0
M  V30 61 H 3.9059 -4.9664 6.0303 0
M  V30 62 H 4.1932 -7.3493 5.5154 0
M  V30 63 H 3.1381 -8.3415 3.5233 0
M  V30 64 H 1.7411 -8.0365 1.4531 0
M  V30 65 H -0.1462 -4.4556 0.6558 0
M  V30 66 H 0.8864 -3.3626 2.6611 0
M  V30 67 C 2.3287 -0.6047 4.9815 0
M  V30 68 C 2.5527 -0.0274 6.2365 0
M  V30 69 C 2.4254 1.3339 6.4040 0
M  V30 70 C 2.0771 2.1488 5.3195 0
M  V30 71 C 1.8744 1.5725 4.0603 0
M  V30 72 C 1.9950 0.2115 3.8938 0
M  V30 73 H 2.8164 -0.6558 7.0741 0
M  V30 74 H 2.5882 1.7793 7.3741 0
M  V30 75 H 1.6195 2.2033 3.2242 0
M  V30 76 H 1.8362 -0.2376 2.9263 0
M  V30 77 C 1.9017 3.5313 5.5178 0
M  V30 78 C 1.7112 4.7116 5.7072 0
M  V30 79 C 1.4419 6.0552 6.0228 0
M  V30 80 C 1.6014 6.4979 7.3249 0
M  V30 81 C 1.2785 7.8091 7.6864 0
M  V30 82 C 0.7749 8.6930 6.7641 0
M  V30 83 C 0.6015 8.2904 5.4279 0
M  V30 84 C 0.0712 9.1434 4.4336 0
M  V30 85 C -0.0573 8.6947 3.1515 0
M  V30 86 N 0.3358 7.4510 2.7816 0
M  V30 87 C 0.8161 6.6185 3.6841 0
M  V30 88 C 0.9579 6.9668 5.0363 0
M  V30 89 H 1.9731 5.8150 8.0734 0
M  V30 90 H 1.4176 8.1191 8.7108 0
M  V30 91 H 0.5071 9.6977 7.0511 0
M  V30 92 H -0.2310 10.1433 4.7008 0
M  V30 93 H -0.4826 9.3177 2.3667 0
M  V30 94 H 1.1154 5.6296 3.3429 0
M  V30 95 C -5.2066 1.4295 0.4777 0
M  V30 96 C -5.2361 2.6348 0.5786 0
M  V30 97 C -5.2308 4.0413 0.6410 0
M  V30 98 C -6.3885 4.7721 0.4392 0
M  V30 99 C -6.3670 6.1717 0.4399 0
M  V30 100 C -5.1950 6.8603 0.6206 0
M  V30 101 C -3.9938 6.1523 0.8393 0
M  V30 102 C -2.7515 6.7973 0.9904 0
M  V30 103 N -1.6308 6.1393 1.2004 0
M  V30 104 C -1.6489 4.7881 1.3217 0
M  V30 105 C -2.7959 4.0648 1.1613 0
M  V30 106 C -4.0070 4.7289 0.8794 0
M  V30 107 H -7.3198 4.2534 0.2699 0
M  V30 108 H -7.2899 6.7079 0.2817 0
M  V30 109 H -5.1800 7.9383 0.5991 0
M  V30 110 H -2.6863 7.8810 0.9280 0
M  V30 111 H -0.6939 4.3238 1.5576 0
M  V30 112 H -2.7928 2.9899 1.2448 0
M  V30 113 C -5.1417 0.0274 0.3634 0
M  V30 114 C -3.9249 -0.5892 0.0475 0
M  V30 115 C -3.8478 -1.9601 -0.0500 0
M  V30 116 C -4.9833 -2.7472 0.1736 0
M  V30 117 C -6.2036 -2.1292 0.4749 0
M  V30 118 C -6.2827 -0.7569 0.5659 0
M  V30 119 H -3.0520 0.0212 -0.1205 0
M  V30 120 H -2.9129 -2.4372 -0.2950 0
M  V30 121 H -7.0812 -2.7360 0.6407 0
M  V30 122 H -7.2228 -0.2813 0.8032 0
M  V30 123 C -4.9077 -4.1521 0.1337 0
M  V30 124 C -4.8434 -5.3609 0.1442 0
M  V30 125 C -4.8358 -6.7636 0.2439 0
M  V30 126 C -6.0076 -7.4347 0.5488 0
M  V30 127 C -6.0212 -8.8218 0.7216 0
M  V30 128 C -4.8678 -9.5590 0.6130 0
M  V30 129 C -3.6544 -8.9216 0.2984 0
M  V30 130 C -2.4292 -9.6177 0.1900 0
M  V30 131 C -1.2895 -8.9408 -0.1331 0
M  V30 132 N -1.2909 -7.6087 -0.3852 0
M  V30 133 C -2.4099 -6.9204 -0.2743 0
M  V30 134 C -3.6305 -7.5123 0.0858 0
M  V30 135 H -6.9231 -6.8746 0.6630 0
M  V30 136 H -6.9540 -9.3111 0.9570 0
M  V30 137 H -4.8782 -10.6264 0.7677 0
M  V30 138 H -2.4073 -10.6811 0.3680 0
M  V30 139 H -0.3258 -9.4423 -0.2026 0
M  V30 140 H -2.3633 -5.8536 -0.4825 0
M  V30 141 C -1.5821 2.1964 -4.9298 0
M  V30 142 C -1.6447 3.3940 -4.7693 0
M  V30 143 C -1.7555 4.7754 -4.5242 0
M  V30 144 C -2.4729 5.5984 -5.3753 0
M  V30 145 C -2.6313 6.9608 -5.0970 0
M  V30 146 C -2.1001 7.5167 -3.9614 0
M  V30 147 C -1.3578 6.7130 -3.0701 0
M  V30 148 C -0.8278 7.2104 -1.8642 0
M  V30 149 N -0.1347 6.4626 -1.0319 0
M  V30 150 C 0.1313 5.1682 -1.3412 0
M  V30 151 C -0.3604 4.5815 -2.4716 0
M  V30 152 C -1.1542 5.3340 -3.3609 0
M  V30 153 H -2.9214 5.1800 -6.2635 0
M  V30 154 H -3.1932 7.5724 -5.7860 0
M  V30 155 H -2.2431 8.5625 -3.7407 0
M  V30 156 H -0.9897 8.2476 -1.5811 0
M  V30 157 H 0.7581 4.6348 -0.6292 0
M  V30 158 H -0.1576 3.5470 -2.6972 0
M  V30 159 C -1.5115 0.8001 -5.0941 0
M  V30 160 C -0.8702 0.0136 -4.1294 0
M  V30 161 C -0.8054 -1.3529 -4.2809 0
M  V30 162 C -1.3766 -1.9654 -5.4024 0
M  V30 163 C -2.0189 -1.1793 -6.3669 0
M  V30 164 C -2.0870 0.1878 -6.2137 0
M  V30 165 H -0.4246 0.4888 -3.2699 0
M  V30 166 H -0.3032 -1.9605 -3.5455 0
M  V30 167 H -2.4587 -1.6519 -7.2325 0
M  V30 168 H -2.5810 0.7940 -6.9583 0
M  V30 169 C -1.2829 -3.3583 -5.5826 0
M  V30 170 C -1.1759 -4.5525 -5.7487 0
M  V30 171 C -1.0006 -5.9177 -6.0373 0
M  V30 172 C -1.2420 -6.3856 -7.3173 0
M  V30 173 C -1.0050 -7.7218 -7.6536 0
M  V30 174 C -0.5072 -8.6060 -6.7285 0
M  V30 175 C -0.2567 -8.1783 -5.4125 0
M  V30 176 C 0.2700 -9.0313 -4.4161 0
M  V30 177 C 0.4698 -8.5576 -3.1523 0
M  V30 178 N 0.1494 -7.2876 -2.8005 0
M  V30 179 C -0.3211 -6.4544 -3.7076 0
M  V30 180 C -0.5274 -6.8281 -5.0446 0
M  V30 181 H -1.6076 -5.7034 -8.0695 0
M  V30 182 H -1.2050 -8.0513 -8.6618 0
M  V30 183 H -0.3035 -9.6305 -6.9979 0
M  V30 184 H 0.5121 -10.0516 -4.6671 0
M  V30 185 H 0.8952 -9.1812 -2.3681 0
M  V30 186 H -0.5610 -5.4444 -3.3821 0
M  V30 END ATOM
M  V30 BEGIN BOND
M  V30 1 3 3 4
M  V30 2 1 4 5
M  V30 3 2 5 6
M  V30 4 1 6 7
M  V30 5 2 7 8
M  V30 6 1 8 9
M  V30 7 2 9 10
M  V30 8 1 10 11
M  V30 9 2 11 12
M  V30 10 1 12 13
M  V30 11 2 13 14
M  V30 12 1 14 5
M  V30 13 1 14 9
M  V30 14 1 6 15
M  V30 15 1 7 16
M  V30 16 1 8 17
M  V30 17 1 10 18
M  V30 18 1 12 19
M  V30 19 1 13 20
M  V30 20 2 21 22
M  V30 21 1 22 23
M  V30 22 2 23 24
M  V30 23 1 24 25
M  V30 24 2 25 26
M  V30 25 1 26 21
M  V30 26 1 22 27
M  V30 27 1 23 28
M  V30 28 1 25 29
M  V30 29 1 26 30
M  V30 30 3 31 32
M  V30 31 1 32 33
M  V30 32 2 33 34
M  V30 33 1 34 35
M  V30 34 2 35 36
M  V30 35 1 36 37
M  V30 36 2 37 38
M  V30 37 1 38 39
M  V30 38 2 39 40
M  V30 39 1 40 41
M  V30 40 2 41 42
M  V30 41 1 42 33
M  V30 42 1 42 37
M  V30 43 1 34 43
M  V30 44 1 35 44
M  V30 45 1 36 45
M  V30 46 1 38 46
M  V30 47 1 39 47
M  V30 48 1 41 48
M  V30 49 1 3 21
M  V30 50 1 24 31
M  V30 51 3 49 50
M  V30 52 1 50 51
M  V30 53 2 51 52
M  V30 54 1 52 53
M  V30 55 2 53 54
M  V30 56 1 54 55
M  V30 57 2 55 56
M  V30 58 1 56 57
M  V30 59 2 57 58
M  V30 60 1 58 59
M  V30 61 2 59 60
M  V30 62 1 60 51
M  V30 63 1 60 55
M  V30 64 1 52 61
M  V30 65 1 53 62
M  V30 66 1 54 63
M  V30 67 1 56 64
M  V30 68 1 58 65
M  V30 69 1 59 66
M  V30 70 2 67 68
M  V30 71 1 68 69
M  V30 72 2 69 70
M  V30 73 1 70 71
M  V30 74 2 71 72
M  V30 75 1 72 67
M  V30 76 1 68 73
M  V30 77 1 69 74
M  V30 78 1 71 75
M  V30 79 1 72 76
M  V30 80 3 77 78
M  V30 81 1 78 79
M  V30 82 2 79 80
M  V30 83 1 80 81
M  V30 84 2 81 82
M  V30 85 1 82 83
M  V30 86 2 83 84
M  V30 87 1 84 85
M  V30 88 2 85 86
M  V30 89 1 86 87
M  V30 90 2 87 88
M  V30 91 1 88 79
M  V30 92 1 88 83
M  V30 93 1 80 89
M  V30 94 1 81 90
M  V30 95 1 82 91
M  V30 96 1 84 92
M  V30 97 1 85 93
M  V30 98 1 87 94
M  V30 99 1 49 67
M  V30 100 1 70 77
M  V30 101 3 95 96
M  V30 102 1 96 97
M  V30 103 2 97 98
M  V30 104 1 98 99
M  V30 105 2 99 100
M  V30 106 1 100 101
M  V30 107 2 101 102
M  V30 108 1 102 103
M  V30 109 2 103 104
M  V30 110 1 104 105
M  V30 111 2 105 106
M  V30 112 1 106 97
M  V30 113 1 106 101
M  V30 114 1 98 107
M  V30 115 1 99 108
M  V30 116 1 100 109
M  V30 117 1 102 110
M  V30 118 1 104 111
M  V30 119 1 105 112
M  V30 120 2 113 114
M  V30 121 1 114 115
M  V30 122 2 115 116
M  V30 123 1 116 117
M  V30 124 2 117 118
M  V30 125 1 118 113
M  V30 126 1 114 119
M  V30 127 1 115 120
M  V30 128 1 117 121
M  V30 129 1 118 122
M  V30 130 3 123 124
M  V30 131 1 124 125
M  V30 132 2 125 126
M  V30 133 1 126 127
M  V30 134 2 127 128
M  V30 135 1 128 129
M  V30 136 2 129 130
M  V30 137 1 130 131
M  V30 138 2 131 132
M  V30 139 1 132 133
M  V30 140 2 133 134
M  V30 141 1 134 125
M  V30 142 1 134 129
M  V30 143 1 126 135
M  V30 144 1 127 136
M  V30 145 1 128 137
M  V30 146 1 130 138
M  V30 147 1 131 139
M  V30 148 1 133 140
M  V30 149 1 95 113
M  V30 150 1 116 123
M  V30 151 3 141 142
M  V30 152 1 142 143
M  V30 153 2 143 144
M  V30 154 1 144 145
M  V30 155 2 145 146
M  V30 156 1 146 147
M  V30 157 2 147 148
M  V30 158 1 148 149
M  V30 159 2 149 150
M  V30 160 1 150 151
M  V30 161 2 151 152
M  V30 162 1 152 143
M  V30 163 1 152 147
M  V30 164 1 144 153
M  V30 165 1 145 154
M  V30 166 1 146 155
M  V30 167 1 148 156
M  V30 168 1 150 157
M  V30 169 1 151 158
M  V30 170 2 159 160
M  V30 171 1 160 161
M  V30 172 2 161 162
M  V30 173 1 162 163
M  V30 174 2 163 164
M  V30 175 1 164 159
M  V30 176 1 160 165
M  V30 177 1 161 166
M  V30 178 1 163 167
M  V30 179 1 164 168
M  V30 180 3 169 170
M  V30 181 1 170 171
M  V30 182 2 171 172
M  V30 183 1 172 173
M  V30 184 2 173 174
M  V30 185 1 174 175
M  V30 186 2 175 176
M  V30 187 1 176 177
M  V30 188 2 177 178
M  V30 189 1 178 179
M  V30 190 2 179 180
M  V30 191 1 180 171
M  V30 192 1 180 175
M  V30 193 1 172 181
M  V30 194 1 173 182
M  V30 195 1 174 183
M  V30 196 1 176 184
M  V30 197 1 177 185
M  V30 198 1 179 186
M  V30 199 1 141 159
M  V30 200 1 162 169
M  V30 201 9 40 1
M  V30 202 9 86 1
M  V30 203 9 103 1
M  V30 204 9 149 1
M  V30 205 9 11 2
M  V30 206 9 57 2
M  V30 207 9 132 2
M  V30 208 9 178 2
M  V30 END BOND
M  V30 END CTAB
M  END

$$$$
