
     RDKit          3D

  0  0  0  0  0  0  0  0  0  0999 V3000
M  V30 BEGIN CTAB
M  V30 COUNTS 186 208 0 0 0
M  V30 BEGIN ATOM
M  V30 1 Pd -0.3498 6.9621 -1.5805 0 CHG=2
M  V30 2 Pd 0.6958 -6.4933 1.6810 0 CHG=2
M  V30 3 C -1.7271 -0.1688 5.3665 0
M  V30 4 C -1.6720 -1.3453 5.6433 0
M  V30 5 C -1.6440 -2.7274 5.9072 0
M  V30 6 C -2.3220 -3.2639 6.9883 0
M  V30 7 C -2.3415 -4.6449 7.2141 0
M  V30 8 C -1.7089 -5.5100 6.3583 0
M  V30 9 C -1.0026 -5.0032 5.2467 0
M  V30 10 C -0.3731 -5.8390 4.3044 0
M  V30 11 N 0.2865 -5.3683 3.2672 0
M  V30 12 C 0.4176 -4.0284 3.0960 0
M  V30 13 C -0.1784 -3.1325 3.9363 0
M  V30 14 C -0.9403 -3.5976 5.0271 0
M  V30 15 H -2.8481 -2.6059 7.6633 0
M  V30 16 H -2.8765 -5.0265 8.0701 0
M  V30 17 H -1.7447 -6.5748 6.5247 0
M  V30 18 H -0.4255 -6.9198 4.4093 0
M  V30 19 H 1.0253 -3.7210 2.2471 0
M  V30 20 H -0.0824 -2.0703 3.7790 0
M  V30 21 C -1.7917 1.1947 5.0223 0
M  V30 22 C -2.4689 2.1023 5.8450 0
M  V30 23 C -2.5327 3.4345 5.5011 0
M  V30 24 C -1.9233 3.8886 4.3249 0
M  V30 25 C -1.2505 2.9795 3.5003 0
M  V30 26 C -1.1835 1.6488 3.8457 0
M  V30 27 H -2.9374 1.7527 6.7529 0
M  V30 28 H -3.0510 4.1362 6.1375 0
M  V30 29 H -0.7745 3.3346 2.6006 0
M  V30 30 H -0.6595 0.9475 3.2160 0
M  V30 31 C -1.9650 5.2568 3.9970 0
M  V30 32 C -1.9745 6.4367 3.7268 0
M  V30 33 C -1.9372 7.8258 3.5105 0
M  V30 34 C -2.2782 8.6901 4.5364 0
M  V30 35 C -2.1789 10.0753 4.3757 0
M  V30 36 C -1.7216 10.6198 3.2010 0
M  V30 37 C -1.3736 9.7811 2.1271 0
M  V30 38 C -0.8815 10.2741 0.8973 0
M  V30 39 C -0.5823 9.4060 -0.1119 0
M  V30 40 N -0.7695 8.0685 0.0100 0
M  V30 41 C -1.2035 7.5678 1.1498 0
M  V30 42 C -1.5036 8.3683 2.2629 0
M  V30 43 H -2.6145 8.2856 5.4788 0
M  V30 44 H -2.4537 10.7189 5.1974 0
M  V30 45 H -1.6240 11.6882 3.0887 0
M  V30 46 H -0.7448 11.3360 0.7698 0
M  V30 47 H -0.1798 9.7508 -1.0628 0
M  V30 48 H -1.3356 6.4894 1.2042 0
M  V30 49 C -5.1486 -1.7435 0.0048 0
M  V30 50 C -5.0630 -2.9025 0.3412 0
M  V30 51 C -4.9262 -4.2313 0.7858 0
M  V30 52 C -6.0202 -4.9570 1.2237 0
M  V30 53 C -5.8706 -6.2558 1.7237 0
M  V30 54 C -4.6335 -6.8404 1.8131 0
M  V30 55 C -3.4935 -6.1375 1.3683 0
M  V30 56 C -2.1916 -6.6639 1.4709 0
M  V30 57 N -1.1273 -6.0126 1.0512 0
M  V30 58 C -1.2634 -4.8017 0.4543 0
M  V30 59 C -2.4780 -4.1896 0.3335 0
M  V30 60 C -3.6349 -4.8302 0.8217 0
M  V30 61 H -7.0019 -4.5096 1.1867 0
M  V30 62 H -6.7469 -6.7920 2.0538 0
M  V30 63 H -4.5210 -7.8331 2.2189 0
M  V30 64 H -2.0304 -7.6423 1.9173 0
M  V30 65 H -0.3451 -4.3564 0.0779 0
M  V30 66 H -2.5694 -3.2199 -0.1288 0
M  V30 67 C -5.2175 -0.3932 -0.3890 0
M  V30 68 C -6.4152 0.1482 -0.8693 0
M  V30 69 C -6.4662 1.4641 -1.2736 0
M  V30 70 C -5.3225 2.2692 -1.2012 0
M  V30 71 C -4.1309 1.7322 -0.7006 0
M  V30 72 C -4.0778 0.4156 -0.3027 0
M  V30 73 H -7.2961 -0.4735 -0.9300 0
M  V30 74 H -7.3872 1.8802 -1.6537 0
M  V30 75 H -3.2555 2.3576 -0.6333 0
M  V30 76 H -3.1610 -0.0036 0.0804 0
M  V30 77 C -5.3776 3.5971 -1.6650 0
M  V30 78 C -5.4234 4.7236 -2.1059 0
M  V30 79 C -5.5393 5.9929 -2.6999 0
M  V30 80 C -6.7522 6.3892 -3.2369 0
M  V30 81 C -6.8846 7.6161 -3.8939 0
M  V30 82 C -5.8099 8.4576 -4.0432 0
M  V30 83 C -4.5591 8.1003 -3.5087 0
M  V30 84 C -3.4090 8.9108 -3.6429 0
M  V30 85 C -2.2284 8.5123 -3.0872 0
M  V30 86 N -2.1196 7.3631 -2.3759 0
M  V30 87 C -3.1646 6.5698 -2.2458 0
M  V30 88 C -4.4161 6.8679 -2.8067 0
M  V30 89 H -7.6063 5.7346 -3.1536 0
M  V30 90 H -7.8462 7.8923 -4.2985 0
M  V30 91 H -5.9105 9.3940 -4.5690 0
M  V30 92 H -3.4763 9.8382 -4.1886 0
M  V30 93 H -1.3189 9.1013 -3.1910 0
M  V30 94 H -3.0302 5.6566 -1.6699 0
M  V30 95 C 2.3392 0.6882 -5.1775 0
M  V30 96 C 2.2971 1.8683 -5.4409 0
M  V30 97 C 2.2785 3.2542 -5.6879 0
M  V30 98 C 3.0178 3.8088 -6.7179 0
M  V30 99 C 3.0458 5.1935 -6.9210 0
M  V30 100 C 2.3577 6.0432 -6.0934 0
M  V30 101 C 1.5837 5.5168 -5.0370 0
M  V30 102 C 0.8876 6.3357 -4.1275 0
M  V30 103 N 0.1603 5.8470 -3.1451 0
M  V30 104 C 0.0242 4.5044 -3.0035 0
M  V30 105 C 0.6818 3.6234 -3.8133 0
M  V30 106 C 1.5150 4.1080 -4.8420 0
M  V30 107 H 3.5881 3.1630 -7.3681 0
M  V30 108 H 3.6317 5.5896 -7.7360 0
M  V30 109 H 2.3995 7.1105 -6.2409 0
M  V30 110 H 0.9422 7.4184 -4.2132 0
M  V30 111 H -0.6433 4.1803 -2.2081 0
M  V30 112 H 0.5768 2.5588 -3.6793 0
M  V30 113 C 2.3712 -0.6801 -4.8459 0
M  V30 114 C 2.0648 -1.0871 -3.5417 0
M  V30 115 C 2.0770 -2.4235 -3.2122 0
M  V30 116 C 2.3881 -3.3850 -4.1806 0
M  V30 117 C 2.7091 -2.9763 -5.4813 0
M  V30 118 C 2.7034 -1.6386 -5.8097 0
M  V30 119 H 1.8223 -0.3429 -2.7999 0
M  V30 120 H 1.8435 -2.7394 -2.2084 0
M  V30 121 H 2.9557 -3.7176 -6.2266 0
M  V30 122 H 2.9462 -1.3245 -6.8140 0
M  V30 123 C 2.3491 -4.7580 -3.8738 0
M  V30 124 C 2.2764 -5.9419 -3.6313 0
M  V30 125 C 2.1459 -7.3302 -3.4492 0
M  V30 126 C 2.4054 -8.1867 -4.5053 0
M  V30 127 C 2.2207 -9.5666 -4.3780 0
M  V30 128 C 1.7575 -10.1125 -3.2063 0
M  V30 129 C 1.4863 -9.2825 -2.1041 0
M  V30 130 C 0.9903 -9.7770 -0.8764 0
M  V30 131 C 0.7622 -8.9186 0.1593 0
M  V30 132 N 1.0225 -7.5915 0.0646 0
M  V30 133 C 1.4663 -7.0886 -1.0705 0
M  V30 134 C 1.7019 -7.8772 -2.2073 0
M  V30 135 H 2.7477 -7.7794 -5.4444 0
M  V30 136 H 2.4349 -10.2037 -5.2225 0
M  V30 137 H 1.5960 -11.1754 -3.1184 0
M  V30 138 H 0.7934 -10.8320 -0.7720 0
M  V30 139 H 0.3595 -9.2630 1.1102 0
M  V30 140 H 1.6580 -6.0181 -1.1018 0
M  V30 141 C 5.4459 2.2683 0.3739 0
M  V30 142 C 5.3664 3.4328 0.0551 0
M  V30 143 C 5.2398 4.7671 -0.3740 0
M  V30 144 C 6.3498 5.5122 -0.7330 0
M  V30 145 C 6.2156 6.8189 -1.2161 0
M  V30 146 C 4.9793 7.3921 -1.3699 0
M  V30 147 C 3.8226 6.6677 -1.0110 0
M  V30 148 C 2.5231 7.1796 -1.1893 0
M  V30 149 N 1.4430 6.5058 -0.8546 0
M  V30 150 C 1.5563 5.2843 -0.2742 0
M  V30 151 C 2.7687 4.6864 -0.0836 0
M  V30 152 C 3.9463 5.3523 -0.4801 0
M  V30 153 H 7.3328 5.0750 -0.6441 0
M  V30 154 H 7.1040 7.3711 -1.4816 0
M  V30 155 H 4.8800 8.3915 -1.7626 0
M  V30 156 H 2.3772 8.1644 -1.6262 0
M  V30 157 H 0.6195 4.8180 0.0248 0
M  V30 158 H 2.8448 3.7076 0.3618 0
M  V30 159 C 5.5196 0.9091 0.7328 0
M  V30 160 C 4.3456 0.1827 0.9668 0
M  V30 161 C 4.4115 -1.1486 1.3100 0
M  V30 162 C 5.6525 -1.7844 1.4314 0
M  V30 163 C 6.8266 -1.0586 1.1964 0
M  V30 164 C 6.7609 0.2727 0.8494 0
M  V30 165 H 3.3910 0.6769 0.8798 0
M  V30 166 H 3.5101 -1.7082 1.5013 0
M  V30 167 H 7.7840 -1.5492 1.2911 0
M  V30 168 H 7.6664 0.8327 0.6698 0
M  V30 169 C 5.7295 -3.1360 1.8173 0
M  V30 170 C 5.7933 -4.2900 2.1768 0
M  V30 171 C 5.9285 -5.5963 2.6798 0
M  V30 172 C 7.1596 -6.0312 3.1393 0
M  V30 173 C 7.3091 -7.2971 3.7136 0
M  V30 174 C 6.2346 -8.1400 3.8566 0
M  V30 175 C 4.9663 -7.7451 3.3947 0
M  V30 176 C 3.8162 -8.5563 3.5248 0
M  V30 177 C 2.6190 -8.1212 3.0356 0
M  V30 178 N 2.4930 -6.9342 2.3920 0
M  V30 179 C 3.5374 -6.1384 2.2724 0
M  V30 180 C 4.8050 -6.4721 2.7740 0
M  V30 181 H 8.0140 -5.3763 3.0629 0
M  V30 182 H 8.2844 -7.6027 4.0608 0
M  V30 183 H 6.3491 -9.1066 4.3215 0
M  V30 184 H 3.8967 -9.5139 4.0138 0
M  V30 185 H 1.7100 -8.7108 3.1399 0
M  V30 186 H 3.3898 -5.1945 1.7523 0
M  V30 END ATOM
M  V30 BEGIN BOND
M  V30 1 3 3 4
M  V30 2 1 4 5
M  V30 3 2 5 6
M  V30 4 1 6 7
M  V30 5 2 7 8
M  V30 6 1 8 9
M  V30 7 2 9 10
M  V30 8 1 10 11
M  V30 9 2 11 12
M  V30 10 1 12 13
M  V30 11 2 13 14
M  V30 12 1 14 5
M  V30 13 1 14 9
M  V30 14 1 6 15
M  V30 15 1 7 16
M  V30 16 1 8 17
M  V30 17 1 10 18
M  V30 18 1 12 19
M  V30 19 1 13 20
M  V30 20 2 21 22
M  V30 21 1 22 23
M  V30 22 2 23 24
M  V30 23 1 24 25
M  V30 24 2 25 26
M  V30 25 1 26 21
M  V30 26 1 22 27
M  V30 27 1 23 28
M  V30 28 1 25 29
M  V30 29 1 26 30
M  V30 30 3 31 32
M  V30 31 1 32 33
M  V30 32 2 33 34
M  V30 33 1 34 35
M  V30 34 2 35 36
M  V30 35 1 36 37
M  V30 36 2 37 38
M  V30 37 1 38 39
M  V30 38 2 39 40
M  V30 39 1 40 41
M  V30 40 2 41 42
M  V30 41 1 42 33
M  V30 42 1 42 37
M  V30 43 1 34 43
M  V30 44 1 35 44
M  V30 45 1 36 45
M  V30 46 1 38 46
M  V30 47 1 39 47
M  V30 48 1 41 48
M  V30 49 1 3 21
M  V30 50 1 24 31
M  V30 51 3 49 50
M  V30 52 1 50 51
M  V30 53 2 51 52
M  V30 54 1 52 53
M  V30 55 2 53 54
M  V30 56 1 54 55
M  V30 57 2 55 56
M  V30 58 1 56 57
M  V30 59 2 57 58
M  V30 60 1 58 59
M  V30 61 2 59 60
M  V30 62 1 60 51
M  V30 63 1 60 55
M  V30 64 1 52 61
M  V30 65 1 53 62
M  V30 66 1 54 63
M  V30 67 1 56 64
M  V30 68 1 58 65
M  V30 69 1 59 66
M  V30 70 2 67 68
M  V30 71 1 68 69
M  V30 72 2 69 70
M  V30 73 1 70 71
M  V30 74 2 71 72
M  V30 75 1 72 67
M  V30 76 1 68 73
M  V30 77 1 69 74
M  V30 78 1 71 75
M  V30 79 1 72 76
M  V30 80 3 77 78
M  V30 81 1 78 79
M  V30 82 2 79 80
M  V30 83 1 80 81
M  V30 84 2 81 82
M  V30 85 1 82 83
M  V30 86 2 83 84
M  V30 87 1 84 85
M  V30 88 2 85 86
M  V30 89 1 86 87
M  V30 90 2 87 88
M  V30 91 1 88 79
M  V30 92 1 88 83
M  V30 93 1 80 89
M  V30 94 1 81 90
M  V30 95 1 82 91
M  V30 96 1 84 92
M  V30 97 1 85 93
M  V30 98 1 87 94
M  V30 99 1 49 67
M  V30 100 1 70 77
M  V30 101 3 95 96
M  V30 102 1 96 97
M  V30 103 2 97 98
M  V30 104 1 98 99
M  V30 105 2 99 100
M  V30 106 1 100 101
M  V30 107 2 101 102
M  V30 108 1 102 103
M  V30 109 2 103 104
M  V30 110 1 104 105
M  V30 111 2 105 106
M  V30 112 1 106 97
M  V30 113 1 106 101
M  V30 114 1 98 107
M  V30 115 1 99 108
M  V30 116 1 100 109
M  V30 117 1 102 110
M  V30 118 1 104 111
M  V30 119 1 105 112
M  V30 120 2 113 114
M  V30 121 1 114 115
M  V30 122 2 115 116
M  V30 123 1 116 117
M  V30 124 2 117 118
M  V30 125 1 118 113
M  V30 126 1 114 119
M  V30 127 1 115 120
M  V30 128 1 117 121
M  V30 129 1 118 122
M  V30 130 3 123 124
M  V30 131 1 124 125
M  V30 132 2 125 126
M  V30 133 1 126 127
M  V30 134 2 127 128
M  V30 135 1 128 129
M  V30 136 2 129 130
M  V30 137 1 130 131
M  V30 138 2 131 132
M  V30 139 1 132 133
M  V30 140 2 133 134
M  V30 141 1 134 125
M  V30 142 1 134 129
M  V30 143 1 126 135
M  V30 144 1 127 136
M  V30 145 1 128 137
M  V30 146 1 130 138
M  V30 147 1 131 139
M  V30 148 1 133 140
M  V30 149 1 95 113
M  V30 150 1 116 123
M  V30 151 3 141 142
M  V30 152 1 142 143
M  V30 153 2 143 144
M  V30 154 1 144 145
M  V30 155 2 145 146
M  V30 156 1 146 147
M  V30 157 2 147 148
M  V30 158 1 148 149
M  V30 159 2 149 150
M  V30 160 1 150 151
M  V30 161 2 151 152
M  V30 162 1 152 143
M  V30 163 1 152 147
M  V30 164 1 144 153
M  V30 165 1 145 154
M  V30 166 1 146 155
M  V30 167 1 148 156
M  V30 168 1 150 157
M  V30 169 1 151 158
M  V30 170 2 159 160
M  V30 171 1 160 161
M  V30 172 2 161 162
M  V30 173 1 162 163
M  V30 174 2 163 164
M  V30 175 1 164 159
M  V30 176 1 160 165
M  V30 177 1 161 166
M  V30 178 1 163 167
M  V30 179 1 164 168
M  V30 180 3 169 170
M  V30 181 1 170 171
M  V30 182 2 171 172
M  V30 183 1 172 173
M  V30 184 2 173 174
M  V30 185 1 174 175
M  V30 186 2 175 176
M  V30 187 1 176 177
M  V30 188 2 177 178
M  V30 189 1 178 179
M  V30 190 2 179 180
M  V30 191 1 180 171
M  V30 192 1 180 175
M  V30 193 1 172 181
M  V30 194 1 173 182
M  V30 195 1 174 183
M  V30 196 1 176 184
M  V30 197 1 177 185
M  V30 198 1 179 186
M  V30 199 1 141 159
M  V30 200 1 162 169
M  V30 201 9 40 1
M  V30 202 9 86 1
M  V30 203 9 103 1
M  V30 204 9 149 1
M  V30 205 9 11 2
M  V30 206 9 57 2
M  V30 207 9 132 2
M  V30 208 9 178 2
M  V30 END BOND
M  V30 END CTAB
M  END

$$$$
