
     RDKit          3D

  0  0  0  0  0  0  0  0  0  0999 V3000
M  V30 BEGIN CTAB
M  V30 COUNTS 186 208 0 0 0
M  V30 BEGIN ATOM
M  V30 1 Pd 1.3287 5.9210 3.0779 0 CHG=2
M  V30 2 Pd -1.9497 -6.2343 -2.7768 0 CHG=2
M  V30 3 C 4.6066 -2.8877 -0.4818 0
M  V30 4 C 4.3226 -3.9628 -0.9586 0
M  V30 5 C 3.9463 -5.2221 -1.4616 0
M  V30 6 C 4.8298 -6.2879 -1.4578 0
M  V30 7 C 4.4341 -7.5541 -1.9035 0
M  V30 8 C 3.1527 -7.7827 -2.3357 0
M  V30 9 C 2.2225 -6.7218 -2.3596 0
M  V30 10 C 0.8802 -6.9003 -2.7457 0
M  V30 11 N 0.0112 -5.9120 -2.7692 0
M  V30 12 C 0.4057 -4.6523 -2.4542 0
M  V30 13 C 1.6770 -4.3774 -2.0393 0
M  V30 14 C 2.6225 -5.4188 -1.9473 0
M  V30 15 H 5.8373 -6.1395 -1.0997 0
M  V30 16 H 5.1517 -8.3599 -1.8905 0
M  V30 17 H 2.8467 -8.7651 -2.6581 0
M  V30 18 H 0.5189 -7.8847 -3.0328 0
M  V30 19 H -0.3575 -3.8828 -2.5533 0
M  V30 20 H 1.9734 -3.3755 -1.7739 0
M  V30 21 C 4.9158 -1.6349 0.0811 0
M  V30 22 C 6.1991 -1.3778 0.5772 0
M  V30 23 C 6.4948 -0.1517 1.1308 0
M  V30 24 C 5.5128 0.8439 1.2037 0
M  V30 25 C 4.2283 0.5843 0.7118 0
M  V30 26 C 3.9337 -0.6396 0.1552 0
M  V30 27 H 6.9571 -2.1447 0.5194 0
M  V30 28 H 7.4859 0.0491 1.5096 0
M  V30 29 H 3.4777 1.3565 0.7610 0
M  V30 30 H 2.9470 -0.8398 -0.2312 0
M  V30 31 C 5.8318 2.1051 1.7412 0
M  V30 32 C 6.1104 3.1996 2.1764 0
M  V30 33 C 6.5128 4.4772 2.6048 0
M  V30 34 C 7.8608 4.7725 2.7129 0
M  V30 35 C 8.2925 6.0552 3.0634 0
M  V30 36 C 7.3922 7.0662 3.2925 0
M  V30 37 C 6.0121 6.8104 3.2049 0
M  V30 38 C 5.0326 7.8080 3.4125 0
M  V30 39 C 3.7087 7.4875 3.3330 0
M  V30 40 N 3.2881 6.2218 3.0879 0
M  V30 41 C 4.1710 5.2685 2.8644 0
M  V30 42 C 5.5554 5.4989 2.8840 0
M  V30 43 H 8.5888 4.0016 2.5110 0
M  V30 44 H 9.3517 6.2489 3.1383 0
M  V30 45 H 7.7294 8.0605 3.5398 0
M  V30 46 H 5.3433 8.8173 3.6302 0
M  V30 47 H 2.9298 8.2363 3.4646 0
M  V30 48 H 3.7890 4.2690 2.6684 0
M  V30 49 C 0.2472 -4.0148 4.2783 0
M  V30 50 C 0.0136 -5.0803 3.7552 0
M  V30 51 C -0.2138 -6.3042 3.0974 0
M  V30 52 C 0.1480 -7.5076 3.6771 0
M  V30 53 C -0.0224 -8.7172 2.9936 0
M  V30 54 C -0.5344 -8.7442 1.7218 0
M  V30 55 C -0.9246 -7.5395 1.0988 0
M  V30 56 C -1.4176 -7.4939 -0.2192 0
M  V30 57 N -1.7878 -6.3721 -0.8003 0
M  V30 58 C -1.7423 -5.2035 -0.1124 0
M  V30 59 C -1.2517 -5.1342 1.1600 0
M  V30 60 C -0.7927 -6.3052 1.7966 0
M  V30 61 H 0.5764 -7.5109 4.6679 0
M  V30 62 H 0.2691 -9.6361 3.4784 0
M  V30 63 H -0.6438 -9.6766 1.1912 0
M  V30 64 H -1.4992 -8.4064 -0.8050 0
M  V30 65 H -2.1243 -4.3318 -0.6393 0
M  V30 66 H -1.2066 -4.1959 1.6891 0
M  V30 67 C 0.5091 -2.7601 4.8618 0
M  V30 68 C 0.6554 -2.6360 6.2480 0
M  V30 69 C 0.8887 -1.4006 6.8108 0
M  V30 70 C 0.9865 -0.2629 5.9999 0
M  V30 71 C 0.8612 -0.3918 4.6119 0
M  V30 72 C 0.6215 -1.6251 4.0496 0
M  V30 73 H 0.5752 -3.5121 6.8741 0
M  V30 74 H 0.9918 -1.3021 7.8812 0
M  V30 75 H 0.9502 0.4833 3.9887 0
M  V30 76 H 0.5207 -1.7289 2.9809 0
M  V30 77 C 1.1748 0.9992 6.5939 0
M  V30 78 C 1.2936 2.0847 7.1165 0
M  V30 79 C 1.3611 3.3110 7.8013 0
M  V30 80 C 1.4003 3.3211 9.1852 0
M  V30 81 C 1.4000 4.5232 9.8988 0
M  V30 82 C 1.3416 5.7312 9.2486 0
M  V30 83 C 1.3068 5.7710 7.8433 0
M  V30 84 C 1.2275 6.9784 7.1129 0
M  V30 85 C 1.2123 6.9476 5.7490 0
M  V30 86 N 1.2993 5.7864 5.0545 0
M  V30 87 C 1.3538 4.6379 5.6995 0
M  V30 88 C 1.3406 4.5547 7.1004 0
M  V30 89 H 1.4225 2.3839 9.7201 0
M  V30 90 H 1.4328 4.4919 10.9771 0
M  V30 91 H 1.3203 6.6562 9.8030 0
M  V30 92 H 1.1761 7.9154 7.6440 0
M  V30 93 H 1.1291 7.8570 5.1566 0
M  V30 94 H 1.4191 3.7313 5.1014 0
M  V30 95 C -5.2021 2.6994 0.5282 0
M  V30 96 C -4.9087 3.7789 0.9892 0
M  V30 97 C -4.5187 5.0401 1.4781 0
M  V30 98 C -5.3670 6.1310 1.4047 0
M  V30 99 C -4.9526 7.3970 1.8346 0
M  V30 100 C -3.6870 7.5982 2.3227 0
M  V30 101 C -2.7943 6.5097 2.4231 0
M  V30 102 C -1.4694 6.6564 2.8762 0
M  V30 103 N -0.6368 5.6416 2.9763 0
M  V30 104 C -1.0566 4.3865 2.6771 0
M  V30 105 C -2.3121 4.1404 2.2000 0
M  V30 106 C -3.2151 5.2087 2.0254 0
M  V30 107 H -6.3601 6.0038 1.0012 0
M  V30 108 H -5.6425 8.2238 1.7644 0
M  V30 109 H -3.3653 8.5797 2.6328 0
M  V30 110 H -1.0914 7.6375 3.1538 0
M  V30 111 H -0.3303 3.5945 2.8458 0
M  V30 112 H -2.6271 3.1397 1.9512 0
M  V30 113 C -5.5153 1.4330 -0.0023 0
M  V30 114 C -4.4853 0.5627 -0.3793 0
M  V30 115 C -4.7812 -0.6836 -0.8831 0
M  V30 116 C -6.1134 -1.0921 -1.0147 0
M  V30 117 C -7.1436 -0.2156 -0.6515 0
M  V30 118 C -6.8480 1.0343 -0.1535 0
M  V30 119 H -3.4603 0.8805 -0.2728 0
M  V30 120 H -3.9903 -1.3548 -1.1760 0
M  V30 121 H -8.1715 -0.5281 -0.7593 0
M  V30 122 H -7.6428 1.7078 0.1312 0
M  V30 123 C -6.4306 -2.3840 -1.4746 0
M  V30 124 C -6.7125 -3.5071 -1.8278 0
M  V30 125 C -7.1187 -4.8116 -2.1608 0
M  V30 126 C -8.4671 -5.1242 -2.1833 0
M  V30 127 C -8.9020 -6.4269 -2.4441 0
M  V30 128 C -8.0032 -7.4408 -2.6673 0
M  V30 129 C -6.6233 -7.1697 -2.6606 0
M  V30 130 C -5.6453 -8.1695 -2.8643 0
M  V30 131 C -4.3222 -7.8365 -2.8603 0
M  V30 132 N -3.9026 -6.5582 -2.6928 0
M  V30 133 C -4.7831 -5.6004 -2.4793 0
M  V30 134 C -6.1652 -5.8398 -2.4297 0
M  V30 135 H -9.1926 -4.3496 -1.9873 0
M  V30 136 H -9.9614 -6.6330 -2.4552 0
M  V30 137 H -8.3417 -8.4489 -2.8474 0
M  V30 138 H -5.9565 -9.1904 -3.0182 0
M  V30 139 H -3.5429 -8.5851 -2.9916 0
M  V30 140 H -4.4009 -4.5905 -2.3467 0
M  V30 141 C -0.5914 3.6455 -4.0338 0
M  V30 142 C -0.3421 4.7130 -3.5218 0
M  V30 143 C -0.1017 5.9411 -2.8778 0
M  V30 144 C -0.3917 7.1440 -3.4986 0
M  V30 145 C -0.2075 8.3614 -2.8333 0
M  V30 146 C 0.2440 8.3983 -1.5388 0
M  V30 147 C 0.5555 7.1944 -0.8718 0
M  V30 148 C 0.9766 7.1600 0.4714 0
M  V30 149 N 1.2683 6.0383 1.0950 0
M  V30 150 C 1.2102 4.8562 0.4309 0
M  V30 151 C 0.7864 4.7771 -0.8645 0
M  V30 152 C 0.4116 5.9505 -1.5499 0
M  V30 153 H -0.7713 7.1407 -4.5090 0
M  V30 154 H -0.4398 9.2794 -3.3508 0
M  V30 155 H 0.3639 9.3378 -1.0234 0
M  V30 156 H 1.0649 8.0815 1.0416 0
M  V30 157 H 1.5216 3.9823 0.9999 0
M  V30 158 H 0.7268 3.8299 -1.3757 0
M  V30 159 C -0.8885 2.3957 -4.6095 0
M  V30 160 C -0.6806 1.2207 -3.8767 0
M  V30 161 C -0.9771 -0.0034 -4.4316 0
M  V30 162 C -1.4847 -0.0826 -5.7336 0
M  V30 163 C -1.6937 1.0923 -6.4663 0
M  V30 164 C -1.4005 2.3176 -5.9099 0
M  V30 165 H -0.2825 1.2842 -2.8764 0
M  V30 166 H -0.8083 -0.9107 -3.8743 0
M  V30 167 H -2.0845 1.0309 -7.4711 0
M  V30 168 H -1.5602 3.2234 -6.4756 0
M  V30 169 C -1.7562 -1.3326 -6.3212 0
M  V30 170 C -1.9617 -2.4098 -6.8334 0
M  V30 171 C -2.1288 -3.6326 -7.5078 0
M  V30 172 C -2.2563 -3.6450 -8.8860 0
M  V30 173 C -2.3485 -4.8487 -9.5910 0
M  V30 174 C -2.2962 -6.0559 -8.9388 0
M  V30 175 C -2.1780 -6.0924 -7.5380 0
M  V30 176 C -2.1025 -7.2992 -6.8060 0
M  V30 177 C -2.0097 -7.2638 -5.4452 0
M  V30 178 N -2.0175 -6.0975 -4.7533 0
M  V30 179 C -2.0618 -4.9503 -5.4015 0
M  V30 180 C -2.1194 -4.8734 -6.8017 0
M  V30 181 H -2.2723 -2.7096 -9.4240 0
M  V30 182 H -2.4471 -4.8199 -10.6655 0
M  V30 183 H -2.3441 -6.9829 -9.4884 0
M  V30 184 H -2.1164 -8.2396 -7.3334 0
M  V30 185 H -1.9266 -8.1737 -4.8536 0
M  V30 186 H -2.0622 -4.0396 -4.8065 0
M  V30 END ATOM
M  V30 BEGIN BOND
M  V30 1 3 3 4
M  V30 2 1 4 5
M  V30 3 2 5 6
M  V30 4 1 6 7
M  V30 5 2 7 8
M  V30 6 1 8 9
M  V30 7 2 9 10
M  V30 8 1 10 11
M  V30 9 2 11 12
M  V30 10 1 12 13
M  V30 11 2 13 14
M  V30 12 1 14 5
M  V30 13 1 14 9
M  V30 14 1 6 15
M  V30 15 1 7 16
M  V30 16 1 8 17
M  V30 17 1 10 18
M  V30 18 1 12 19
M  V30 19 1 13 20
M  V30 20 2 21 22
M  V30 21 1 22 23
M  V30 22 2 23 24
M  V30 23 1 24 25
M  V30 24 2 25 26
M  V30 25 1 26 21
M  V30 26 1 22 27
M  V30 27 1 23 28
M  V30 28 1 25 29
M  V30 29 1 26 30
M  V30 30 3 31 32
M  V30 31 1 32 33
M  V30 32 2 33 34
M  V30 33 1 34 35
M  V30 34 2 35 36
M  V30 35 1 36 37
M  V30 36 2 37 38
M  V30 37 1 38 39
M  V30 38 2 39 40
M  V30 39 1 40 41
M  V30 40 2 41 42
M  V30 41 1 42 33
M  V30 42 1 42 37
M  V30 43 1 34 43
M  V30 44 1 35 44
M  V30 45 1 36 45
M  V30 46 1 38 46
M  V30 47 1 39 47
M  V30 48 1 41 48
M  V30 49 1 3 21
M  V30 50 1 24 31
M  V30 51 3 49 50
M  V30 52 1 50 51
M  V30 53 2 51 52
M  V30 54 1 52 53
M  V30 55 2 53 54
M  V30 56 1 54 55
M  V30 57 2 55 56
M  V30 58 1 56 57
M  V30 59 2 57 58
M  V30 60 1 58 59
M  V30 61 2 59 60
M  V30 62 1 60 51
M  V30 63 1 60 55
M  V30 64 1 52 61
M  V30 65 1 53 62
M  V30 66 1 54 63
M  V30 67 1 56 64
M  V30 68 1 58 65
M  V30 69 1 59 66
M  V30 70 2 67 68
M  V30 71 1 68 69
M  V30 72 2 69 70
M  V30 73 1 70 71
M  V30 74 2 71 72
M  V30 75 1 72 67
M  V30 76 1 68 73
M  V30 77 1 69 74
M  V30 78 1 71 75
M  V30 79 1 72 76
M  V30 80 3 77 78
M  V30 81 1 78 79
M  V30 82 2 79 80
M  V30 83 1 80 81
M  V30 84 2 81 82
M  V30 85 1 82 83
M  V30 86 2 83 84
M  V30 87 1 84 85
M  V30 88 2 85 86
M  V30 89 1 86 87
M  V30 90 2 87 88
M  V30 91 1 88 79
M  V30 92 1 88 83
M  V30 93 1 80 89
M  V30 94 1 81 90
M  V30 95 1 82 91
M  V30 96 1 84 92
M  V30 97 1 85 93
M  V30 98 1 87 94
M  V30 99 1 49 67
M  V30 100 1 70 77
M  V30 101 3 95 96
M  V30 102 1 96 97
M  V30 103 2 97 98
M  V30 104 1 98 99
M  V30 105 2 99 100
M  V30 106 1 100 101
M  V30 107 2 101 102
M  V30 108 1 102 103
M  V30 109 2 103 104
M  V30 110 1 104 105
M  V30 111 2 105 106
M  V30 112 1 106 97
M  V30 113 1 106 101
M  V30 114 1 98 107
M  V30 115 1 99 108
M  V30 116 1 100 109
M  V30 117 1 102 110
M  V30 118 1 104 111
M  V30 119 1 105 112
M  V30 120 2 113 114
M  V30 121 1 114 115
M  V30 122 2 115 116
M  V30 123 1 116 117
M  V30 124 2 117 118
M  V30 125 1 118 113
M  V30 126 1 114 119
M  V30 127 1 115 120
M  V30 128 1 117 121
M  V30 129 1 118 122
M  V30 130 3 123 124
M  V30 131 1 124 125
M  V30 132 2 125 126
M  V30 133 1 126 127
M  V30 134 2 127 128
M  V30 135 1 128 129
M  V30 136 2 129 130
M  V30 137 1 130 131
M  V30 138 2 131 132
M  V30 139 1 132 133
M  V30 140 2 133 134
M  V30 141 1 134 125
M  V30 142 1 134 129
M  V30 143 1 126 135
M  V30 144 1 127 136
M  V30 145 1 128 137
M  V30 146 1 130 138
M  V30 147 1 131 139
M  V30 148 1 133 140
M  V30 149 1 95 113
M  V30 150 1 116 123
M  V30 151 3 141 142
M  V30 152 1 142 143
M  V30 153 2 143 144
M  V30 154 1 144 145
M  V30 155 2 145 146
M  V30 156 1 146 147
M  V30 157 2 147 148
M  V30 158 1 148 149
M  V30 159 2 149 150
M  V30 160 1 150 151
M  V30 161 2 151 152
M  V30 162 1 152 143
M  V30 163 1 152 147
M  V30 164 1 144 153
M  V30 165 1 145 154
M  V30 166 1 146 155
M  V30 167 1 148 156
M  V30 168 1 150 157
M  V30 169 1 151 158
M  V30 170 2 159 160
M  V30 171 1 160 161
M  V30 172 2 161 162
M  V30 173 1 162 163
M  V30 174 2 163 164
M  V30 175 1 164 159
M  V30 176 1 160 165
M  V30 177 1 161 166
M  V30 178 1 163 167
M  V30 179 1 164 168
M  V30 180 3 169 170
M  V30 181 1 170 171
M  V30 182 2 171 172
M  V30 183 1 172 173
M  V30 184 2 173 174
M  V30 185 1 174 175
M  V30 186 2 175 176
M  V30 187 1 176 177
M  V30 188 2 177 178
M  V30 189 1 178 179
M  V30 190 2 179 180
M  V30 191 1 180 171
M  V30 192 1 180 175
M  V30 193 1 172 181
M  V30 194 1 173 182
M  V30 195 1 174 183
M  V30 196 1 176 184
M  V30 197 1 177 185
M  V30 198 1 179 186
M  V30 199 1 141 159
M  V30 200 1 162 169
M  V30 201 9 40 1
M  V30 202 9 86 1
M  V30 203 9 103 1
M  V30 204 9 149 1
M  V30 205 9 11 2
M  V30 206 9 57 2
M  V30 207 9 132 2
M  V30 208 9 178 2
M  V30 END BOND
M  V30 END CTAB
M  END

$$$$
