
     RDKit          3D

  0  0  0  0  0  0  0  0  0  0999 V3000
M  V30 BEGIN CTAB
M  V30 COUNTS 186 208 0 0 0
M  V30 BEGIN ATOM
M  V30 1 Pd 2.0012 4.6546 -4.7459 0 CHG=2
M  V30 2 Pd -2.0390 -4.6812 4.7038 0 CHG=2
M  V30 3 C -1.5999 3.0138 4.4925 0
M  V30 4 C -1.9871 2.2066 5.3062 0
M  V30 5 C -2.4795 1.2410 6.2039 0
M  V30 6 C -3.2450 1.6051 7.2983 0
M  V30 7 C -3.7830 0.6385 8.1556 0
M  V30 8 C -3.5873 -0.6991 7.9243 0
M  V30 9 C -2.8091 -1.1120 6.8219 0
M  V30 10 C -2.6102 -2.4686 6.5012 0
M  V30 11 N -1.8843 -2.8557 5.4737 0
M  V30 12 C -1.2562 -1.9349 4.6996 0
M  V30 13 C -1.4072 -0.5941 4.9080 0
M  V30 14 C -2.2218 -0.1386 5.9643 0
M  V30 15 H -3.4338 2.6508 7.4886 0
M  V30 16 H -4.3707 0.9601 9.0016 0
M  V30 17 H -4.0217 -1.4405 8.5756 0
M  V30 18 H -3.0698 -3.2473 7.1047 0
M  V30 19 H -0.6298 -2.3377 3.9060 0
M  V30 20 H -0.9179 0.1279 4.2745 0
M  V30 21 C -1.1532 3.9381 3.5290 0
M  V30 22 C -1.3756 5.3088 3.7048 0
M  V30 23 C -0.9402 6.2082 2.7569 0
M  V30 24 C -0.2755 5.7568 1.6100 0
M  V30 25 C -0.0579 4.3855 1.4326 0
M  V30 26 C -0.4896 3.4869 2.3816 0
M  V30 27 H -1.8866 5.6572 4.5900 0
M  V30 28 H -1.1073 7.2661 2.8939 0
M  V30 29 H 0.4626 4.0427 0.5530 0
M  V30 30 H -0.3168 2.4304 2.2511 0
M  V30 31 C 0.1950 6.6845 0.6618 0
M  V30 32 C 0.6259 7.4811 -0.1414 0
M  V30 33 C 1.1840 8.4522 -0.9918 0
M  V30 34 C 1.2666 9.7681 -0.5707 0
M  V30 35 C 1.8837 10.7414 -1.3622 0
M  V30 36 C 2.4435 10.4172 -2.5733 0
M  V30 37 C 2.3743 9.0949 -3.0472 0
M  V30 38 C 2.9428 8.6899 -4.2762 0
M  V30 39 C 2.8213 7.3945 -4.6871 0
M  V30 40 N 2.1393 6.4714 -3.9649 0
M  V30 41 C 1.6158 6.8042 -2.8015 0
M  V30 42 C 1.7167 8.0986 -2.2684 0
M  V30 43 H 0.8582 10.0426 0.3899 0
M  V30 44 H 1.9295 11.7577 -1.0016 0
M  V30 45 H 2.9395 11.1660 -3.1707 0
M  V30 46 H 3.4714 9.4119 -4.8779 0
M  V30 47 H 3.2670 7.0448 -5.6166 0
M  V30 48 H 1.0807 6.0311 -2.2544 0
M  V30 49 C -5.6835 0.3420 0.1199 0
M  V30 50 C -6.0323 -0.4328 0.9811 0
M  V30 51 C -6.3929 -1.3058 2.0252 0
M  V30 52 C -7.6535 -1.2605 2.5944 0
M  V30 53 C -7.9875 -2.0870 3.6736 0
M  V30 54 C -7.0695 -2.9518 4.2119 0
M  V30 55 C -5.7758 -3.0352 3.6543 0
M  V30 56 C -4.7750 -3.8711 4.1854 0
M  V30 57 N -3.5693 -3.9551 3.6635 0
M  V30 58 C -3.2628 -3.2511 2.5448 0
M  V30 59 C -4.1514 -2.3885 1.9693 0
M  V30 60 C -5.4339 -2.2283 2.5319 0
M  V30 61 H -8.3863 -0.5704 2.2046 0
M  V30 62 H -8.9811 -2.0255 4.0899 0
M  V30 63 H -7.3250 -3.5709 5.0569 0
M  V30 64 H -4.9776 -4.4764 5.0658 0
M  V30 65 H -2.2685 -3.4224 2.1382 0
M  V30 66 H -3.8888 -1.8233 1.0895 0
M  V30 67 C -5.2490 1.2326 -0.8807 0
M  V30 68 C -6.1711 1.8539 -1.7303 0
M  V30 69 C -5.7340 2.7057 -2.7207 0
M  V30 70 C -4.3659 2.9596 -2.8799 0
M  V30 71 C -3.4465 2.3540 -2.0157 0
M  V30 72 C -3.8823 1.4977 -1.0302 0
M  V30 73 H -7.2257 1.6547 -1.6112 0
M  V30 74 H -6.4439 3.1780 -3.3833 0
M  V30 75 H -2.3949 2.5614 -2.1317 0
M  V30 76 H -3.1773 1.0260 -0.3642 0
M  V30 77 C -3.9315 3.7925 -3.9282 0
M  V30 78 C -3.5651 4.4752 -4.8583 0
M  V30 79 C -3.2173 5.2192 -5.9998 0
M  V30 80 C -4.2130 5.7037 -6.8307 0
M  V30 81 C -3.9006 6.3889 -8.0086 0
M  V30 82 C -2.5954 6.5857 -8.3868 0
M  V30 83 C -1.5499 6.1170 -7.5714 0
M  V30 84 C -0.1864 6.2695 -7.9107 0
M  V30 85 C 0.7799 5.8045 -7.0672 0
M  V30 86 N 0.4790 5.2161 -5.8833 0
M  V30 87 C -0.7813 5.0367 -5.5405 0
M  V30 88 C -1.8519 5.4460 -6.3504 0
M  V30 89 H -5.2469 5.5407 -6.5674 0
M  V30 90 H -4.7034 6.7536 -8.6308 0
M  V30 91 H -2.3580 7.0964 -9.3068 0
M  V30 92 H 0.0770 6.7511 -8.8388 0
M  V30 93 H 1.8382 5.8854 -7.3086 0
M  V30 94 H -0.9756 4.5571 -4.5835 0
M  V30 95 C 1.8319 -3.0533 -4.4439 0
M  V30 96 C 2.2332 -2.2413 -5.2459 0
M  V30 97 C 2.7367 -1.2676 -6.1294 0
M  V30 98 C 3.5688 -1.6142 -7.1794 0
M  V30 99 C 4.1174 -0.6366 -8.0177 0
M  V30 100 C 3.8629 0.6950 -7.8114 0
M  V30 101 C 3.0115 1.0896 -6.7571 0
M  V30 102 C 2.7428 2.4407 -6.4663 0
M  V30 103 N 1.9443 2.8110 -5.4874 0
M  V30 104 C 1.3088 1.8751 -4.7382 0
M  V30 105 C 1.5242 0.5389 -4.9186 0
M  V30 106 C 2.4156 0.1037 -5.9201 0
M  V30 107 H 3.8045 -2.6540 -7.3478 0
M  V30 108 H 4.7601 -0.9447 -8.8279 0
M  V30 109 H 4.3050 1.4457 -8.4467 0
M  V30 110 H 3.2063 3.2297 -7.0538 0
M  V30 111 H 0.6177 2.2597 -3.9915 0
M  V30 112 H 1.0242 -0.1935 -4.3053 0
M  V30 113 C 1.3526 -3.9757 -3.4938 0
M  V30 114 C 0.9927 -3.5334 -2.2149 0
M  V30 115 C 0.5073 -4.4246 -1.2849 0
M  V30 116 C 0.3631 -5.7773 -1.6138 0
M  V30 117 C 0.7373 -6.2219 -2.8883 0
M  V30 118 C 1.2292 -5.3315 -3.8171 0
M  V30 119 H 1.1023 -2.4896 -1.9673 0
M  V30 120 H 0.2315 -4.0872 -0.2991 0
M  V30 121 H 0.6324 -7.2667 -3.1398 0
M  V30 122 H 1.5129 -5.6741 -4.8012 0
M  V30 123 C -0.1848 -6.6901 -0.6931 0
M  V30 124 C -0.6946 -7.4738 0.0759 0
M  V30 125 C -1.3402 -8.4275 0.8829 0
M  V30 126 C -1.4967 -9.7228 0.4201 0
M  V30 127 C -2.1923 -10.6776 1.1678 0
M  V30 128 C -2.7583 -10.3538 2.3762 0
M  V30 129 C -2.6200 -9.0520 2.8899 0
M  V30 130 C -3.1928 -8.6480 4.1172 0
M  V30 131 C -3.0080 -7.3728 4.5660 0
M  V30 132 N -2.2612 -6.4707 3.8828 0
M  V30 133 C -1.7275 -6.8031 2.7240 0
M  V30 134 C -1.8847 -8.0765 2.1552 0
M  V30 135 H -1.0815 -9.9956 -0.5380 0
M  V30 136 H -2.2929 -11.6781 0.7757 0
M  V30 137 H -3.3124 -11.0873 2.9405 0
M  V30 138 H -3.7755 -9.3541 4.6869 0
M  V30 139 H -3.4538 -7.0226 5.4953 0
M  V30 140 H -1.1392 -6.0464 2.2092 0
M  V30 141 C 5.6394 -0.1681 0.0443 0
M  V30 142 C 5.9969 0.6176 -0.8034 0
M  V30 143 C 6.3701 1.4990 -1.8352 0
M  V30 144 C 7.6578 1.5025 -2.3433 0
M  V30 145 C 8.0099 2.3380 -3.4094 0
M  V30 146 C 7.0844 3.1614 -3.9978 0
M  V30 147 C 5.7618 3.1911 -3.5066 0
M  V30 148 C 4.7529 3.9769 -4.0957 0
M  V30 149 N 3.5189 4.0065 -3.6387 0
M  V30 150 C 3.1863 3.2943 -2.5324 0
M  V30 151 C 4.0825 2.4785 -1.9038 0
M  V30 152 C 5.3994 2.3764 -2.3963 0
M  V30 153 H 8.3988 0.8458 -1.9132 0
M  V30 154 H 9.0247 2.3170 -3.7759 0
M  V30 155 H 7.3553 3.7875 -4.8328 0
M  V30 156 H 4.9726 4.5865 -4.9687 0
M  V30 157 H 2.1621 3.4172 -2.1854 0
M  V30 158 H 3.8013 1.9032 -1.0365 0
M  V30 159 C 5.2036 -1.0849 1.0198 0
M  V30 160 C 3.8568 -1.1128 1.4015 0
M  V30 161 C 3.4237 -2.0126 2.3487 0
M  V30 162 C 4.3274 -2.9031 2.9399 0
M  V30 163 C 5.6742 -2.8761 2.5576 0
M  V30 164 C 6.1071 -1.9783 1.6071 0
M  V30 165 H 3.1640 -0.4206 0.9498 0
M  V30 166 H 2.3895 -2.0298 2.6527 0
M  V30 167 H 6.3713 -3.5627 3.0145 0
M  V30 168 H 7.1460 -1.9565 1.3136 0
M  V30 169 C 3.8993 -3.8016 3.9354 0
M  V30 170 C 3.5338 -4.5531 4.8110 0
M  V30 171 C 3.1840 -5.3787 5.8944 0
M  V30 172 C 4.1767 -5.9388 6.6796 0
M  V30 173 C 3.8600 -6.7021 7.8073 0
M  V30 174 C 2.5540 -6.9032 8.1808 0
M  V30 175 C 1.5114 -6.3624 7.4074 0
M  V30 176 C 0.1474 -6.5175 7.7435 0
M  V30 177 C -0.8160 -5.9845 6.9376 0
M  V30 178 N -0.5122 -5.3263 5.7914 0
M  V30 179 C 0.7492 -5.1395 5.4564 0
M  V30 180 C 1.8173 -5.6123 6.2345 0
M  V30 181 H 5.2115 -5.7722 6.4222 0
M  V30 182 H 4.6605 -7.1236 8.3960 0
M  V30 183 H 2.3141 -7.4732 9.0646 0
M  V30 184 H -0.1190 -7.0559 8.6390 0
M  V30 185 H -1.8740 -6.0658 7.1796 0
M  V30 186 H 0.9466 -4.6031 4.5309 0
M  V30 END ATOM
M  V30 BEGIN BOND
M  V30 1 3 3 4
M  V30 2 1 4 5
M  V30 3 2 5 6
M  V30 4 1 6 7
M  V30 5 2 7 8
M  V30 6 1 8 9
M  V30 7 2 9 10
M  V30 8 1 10 11
M  V30 9 2 11 12
M  V30 10 1 12 13
M  V30 11 2 13 14
M  V30 12 1 14 5
M  V30 13 1 14 9
M  V30 14 1 6 15
M  V30 15 1 7 16
M  V30 16 1 8 17
M  V30 17 1 10 18
M  V30 18 1 12 19
M  V30 19 1 13 20
M  V30 20 2 21 22
M  V30 21 1 22 23
M  V30 22 2 23 24
M  V30 23 1 24 25
M  V30 24 2 25 26
M  V30 25 1 26 21
M  V30 26 1 22 27
M  V30 27 1 23 28
M  V30 28 1 25 29
M  V30 29 1 26 30
M  V30 30 3 31 32
M  V30 31 1 32 33
M  V30 32 2 33 34
M  V30 33 1 34 35
M  V30 34 2 35 36
M  V30 35 1 36 37
M  V30 36 2 37 38
M  V30 37 1 38 39
M  V30 38 2 39 40
M  V30 39 1 40 41
M  V30 40 2 41 42
M  V30 41 1 42 33
M  V30 42 1 42 37
M  V30 43 1 34 43
M  V30 44 1 35 44
M  V30 45 1 36 45
M  V30 46 1 38 46
M  V30 47 1 39 47
M  V30 48 1 41 48
M  V30 49 1 3 21
M  V30 50 1 24 31
M  V30 51 3 49 50
M  V30 52 1 50 51
M  V30 53 2 51 52
M  V30 54 1 52 53
M  V30 55 2 53 54
M  V30 56 1 54 55
M  V30 57 2 55 56
M  V30 58 1 56 57
M  V30 59 2 57 58
M  V30 60 1 58 59
M  V30 61 2 59 60
M  V30 62 1 60 51
M  V30 63 1 60 55
M  V30 64 1 52 61
M  V30 65 1 53 62
M  V30 66 1 54 63
M  V30 67 1 56 64
M  V30 68 1 58 65
M  V30 69 1 59 66
M  V30 70 2 67 68
M  V30 71 1 68 69
M  V30 72 2 69 70
M  V30 73 1 70 71
M  V30 74 2 71 72
M  V30 75 1 72 67
M  V30 76 1 68 73
M  V30 77 1 69 74
M  V30 78 1 71 75
M  V30 79 1 72 76
M  V30 80 3 77 78
M  V30 81 1 78 79
M  V30 82 2 79 80
M  V30 83 1 80 81
M  V30 84 2 81 82
M  V30 85 1 82 83
M  V30 86 2 83 84
M  V30 87 1 84 85
M  V30 88 2 85 86
M  V30 89 1 86 87
M  V30 90 2 87 88
M  V30 91 1 88 79
M  V30 92 1 88 83
M  V30 93 1 80 89
M  V30 94 1 81 90
M  V30 95 1 82 91
M  V30 96 1 84 92
M  V30 97 1 85 93
M  V30 98 1 87 94
M  V30 99 1 49 67
M  V30 100 1 70 77
M  V30 101 3 95 96
M  V30 102 1 96 97
M  V30 103 2 97 98
M  V30 104 1 98 99
M  V30 105 2 99 100
M  V30 106 1 100 101
M  V30 107 2 101 102
M  V30 108 1 102 103
M  V30 109 2 103 104
M  V30 110 1 104 105
M  V30 111 2 105 106
M  V30 112 1 106 97
M  V30 113 1 106 101
M  V30 114 1 98 107
M  V30 115 1 99 108
M  V30 116 1 100 109
M  V30 117 1 102 110
M  V30 118 1 104 111
M  V30 119 1 105 112
M  V30 120 2 113 114
M  V30 121 1 114 115
M  V30 122 2 115 116
M  V30 123 1 116 117
M  V30 124 2 117 118
M  V30 125 1 118 113
M  V30 126 1 114 119
M  V30 127 1 115 120
M  V30 128 1 117 121
M  V30 129 1 118 122
M  V30 130 3 123 124
M  V30 131 1 124 125
M  V30 132 2 125 126
M  V30 133 1 126 127
M  V30 134 2 127 128
M  V30 135 1 128 129
M  V30 136 2 129 130
M  V30 137 1 130 131
M  V30 138 2 131 132
M  V30 139 1 132 133
M  V30 140 2 133 134
M  V30 141 1 134 125
M  V30 142 1 134 129
M  V30 143 1 126 135
M  V30 144 1 127 136
M  V30 145 1 128 137
M  V30 146 1 130 138
M  V30 147 1 131 139
M  V30 148 1 133 140
M  V30 149 1 95 113
M  V30 150 1 116 123
M  V30 151 3 141 142
M  V30 152 1 142 143
M  V30 153 2 143 144
M  V30 154 1 144 145
M  V30 155 2 145 146
M  V30 156 1 146 147
M  V30 157 2 147 148
M  V30 158 1 148 149
M  V30 159 2 149 150
M  V30 160 1 150 151
M  V30 161 2 151 152
M  V30 162 1 152 143
M  V30 163 1 152 147
M  V30 164 1 144 153
M  V30 165 1 145 154
M  V30 166 1 146 155
M  V30 167 1 148 156
M  V30 168 1 150 157
M  V30 169 1 151 158
M  V30 170 2 159 160
M  V30 171 1 160 161
M  V30 172 2 161 162
M  V30 173 1 162 163
M  V30 174 2 163 164
M  V30 175 1 164 159
M  V30 176 1 160 165
M  V30 177 1 161 166
M  V30 178 1 163 167
M  V30 179 1 164 168
M  V30 180 3 169 170
M  V30 181 1 170 171
M  V30 182 2 171 172
M  V30 183 1 172 173
M  V30 184 2 173 174
M  V30 185 1 174 175
M  V30 186 2 175 176
M  V30 187 1 176 177
M  V30 188 2 177 178
M  V30 189 1 178 179
M  V30 190 2 179 180
M  V30 191 1 180 171
M  V30 192 1 180 175
M  V30 193 1 172 181
M  V30 194 1 173 182
M  V30 195 1 174 183
M  V30 196 1 176 184
M  V30 197 1 177 185
M  V30 198 1 179 186
M  V30 199 1 141 159
M  V30 200 1 162 169
M  V30 201 9 40 1
M  V30 202 9 86 1
M  V30 203 9 103 1
M  V30 204 9 149 1
M  V30 205 9 11 2
M  V30 206 9 57 2
M  V30 207 9 132 2
M  V30 208 9 178 2
M  V30 END BOND
M  V30 END CTAB
M  END

$$$$
