
     RDKit          3D

  0  0  0  0  0  0  0  0  0  0999 V3000
M  V30 BEGIN CTAB
M  V30 COUNTS 186 208 0 0 0
M  V30 BEGIN ATOM
M  V30 1 Pd -0.4093 6.9905 1.3530 0 CHG=2
M  V30 2 Pd 0.2268 -6.5275 -1.7516 0 CHG=2
M  V30 3 C 5.3393 -1.2080 0.4882 0
M  V30 4 C 5.3938 -2.3937 0.2539 0
M  V30 5 C 5.4055 -3.7826 0.0271 0
M  V30 6 C 6.4872 -4.5604 0.4029 0
M  V30 7 C 6.4713 -5.9491 0.2304 0
M  V30 8 C 5.3747 -6.5837 -0.2948 0
M  V30 9 C 4.2531 -5.8265 -0.6948 0
M  V30 10 C 3.0785 -6.4200 -1.1957 0
M  V30 11 N 2.0315 -5.7157 -1.5698 0
M  V30 12 C 2.0717 -4.3600 -1.5215 0
M  V30 13 C 3.1517 -3.6879 -1.0256 0
M  V30 14 C 4.2711 -4.4088 -0.5627 0
M  V30 15 H 7.3531 -4.0875 0.8410 0
M  V30 16 H 7.3349 -6.5224 0.5308 0
M  V30 17 H 5.3590 -7.6561 -0.4059 0
M  V30 18 H 3.0038 -7.5014 -1.2795 0
M  V30 19 H 1.1885 -3.8503 -1.9018 0
M  V30 20 H 3.1642 -2.6111 -0.9751 0
M  V30 21 C 5.2538 0.1696 0.7655 0
M  V30 22 C 6.3342 0.8445 1.3455 0
M  V30 23 C 6.2433 2.1915 1.6186 0
M  V30 24 C 5.0687 2.8933 1.3208 0
M  V30 25 C 3.9870 2.2165 0.7453 0
M  V30 26 C 4.0789 0.8713 0.4689 0
M  V30 27 H 7.2407 0.3039 1.5735 0
M  V30 28 H 7.0780 2.7139 2.0618 0
M  V30 29 H 3.0879 2.7622 0.5087 0
M  V30 30 H 3.2497 0.3489 0.0188 0
M  V30 31 C 4.9953 4.2761 1.5729 0
M  V30 32 C 4.9391 5.4704 1.7619 0
M  V30 33 C 4.9621 6.8680 1.9158 0
M  V30 34 C 6.1674 7.5167 2.1219 0
M  V30 35 C 6.2317 8.9108 2.2034 0
M  V30 36 C 5.1031 9.6801 2.0626 0
M  V30 37 C 3.8545 9.0646 1.8626 0
M  V30 38 C 2.6570 9.7964 1.6942 0
M  V30 39 C 1.4752 9.1359 1.5250 0
M  V30 40 N 1.3983 7.7821 1.5420 0
M  V30 41 C 2.4964 7.0640 1.6720 0
M  V30 42 C 3.7672 7.6428 1.8132 0
M  V30 43 H 7.0727 6.9353 2.2084 0
M  V30 44 H 7.1891 9.3824 2.3649 0
M  V30 45 H 5.1598 10.7565 2.1027 0
M  V30 46 H 2.6906 10.8741 1.6988 0
M  V30 47 H 0.5389 9.6690 1.3696 0
M  V30 48 H 2.3884 5.9816 1.6767 0
M  V30 49 C 0.5383 -2.4280 4.7772 0
M  V30 50 C 0.6475 -3.6011 4.5025 0
M  V30 51 C 0.8224 -4.9496 4.1374 0
M  V30 52 C 1.3291 -5.8748 5.0332 0
M  V30 53 C 1.5601 -7.2004 4.6474 0
M  V30 54 C 1.3102 -7.6169 3.3651 0
M  V30 55 C 0.7840 -6.7066 2.4236 0
M  V30 56 C 0.5445 -7.0590 1.0817 0
M  V30 57 N 0.0483 -6.2134 0.2032 0
M  V30 58 C -0.2941 -4.9579 0.5872 0
M  V30 59 C -0.0741 -4.5068 1.8571 0
M  V30 60 C 0.5079 -5.3648 2.8123 0
M  V30 61 H 1.5574 -5.5656 6.0419 0
M  V30 62 H 1.9538 -7.8943 5.3739 0
M  V30 63 H 1.5099 -8.6337 3.0669 0
M  V30 64 H 0.7768 -8.0612 0.7292 0
M  V30 65 H -0.7562 -4.3405 -0.1800 0
M  V30 66 H -0.3365 -3.5013 2.1442 0
M  V30 67 C 0.4033 -1.0566 5.0678 0
M  V30 68 C 0.2605 -0.6195 6.3894 0
M  V30 69 C 0.1061 0.7221 6.6611 0
M  V30 70 C 0.0968 1.6568 5.6180 0
M  V30 71 C 0.2611 1.2200 4.2985 0
M  V30 72 C 0.4088 -0.1211 4.0260 0
M  V30 73 H 0.2627 -1.3401 7.1936 0
M  V30 74 H -0.0141 1.0597 7.6797 0
M  V30 75 H 0.2670 1.9426 3.4986 0
M  V30 76 H 0.5321 -0.4627 3.0106 0
M  V30 77 C -0.1124 3.0183 5.9075 0
M  V30 78 C -0.3357 4.1805 6.1620 0
M  V30 79 C -0.6692 5.4955 6.5319 0
M  V30 80 C -0.8888 5.7969 7.8652 0
M  V30 81 C -1.2873 7.0774 8.2599 0
M  V30 82 C -1.4915 8.0709 7.3342 0
M  V30 83 C -1.2748 7.8134 5.9688 0
M  V30 84 C -1.4840 8.7845 4.9635 0
M  V30 85 C -1.2405 8.4739 3.6575 0
M  V30 86 N -0.7717 7.2582 3.2824 0
M  V30 87 C -0.5835 6.3189 4.1882 0
M  V30 88 C -0.8357 6.5222 5.5538 0
M  V30 89 H -0.7582 5.0265 8.6096 0
M  V30 90 H -1.4475 7.2760 9.3085 0
M  V30 91 H -1.8192 9.0519 7.6402 0
M  V30 92 H -1.8390 9.7643 5.2403 0
M  V30 93 H -1.4128 9.1907 2.8566 0
M  V30 94 H -0.2097 5.3577 3.8413 0
M  V30 95 C -5.4783 1.7438 -1.1587 0
M  V30 96 C -5.5217 2.9328 -0.9394 0
M  V30 97 C -5.5182 4.3242 -0.7249 0
M  V30 98 C -6.5590 5.1207 -1.1693 0
M  V30 99 C -6.5222 6.5108 -1.0095 0
M  V30 100 C -5.4449 7.1267 -0.4259 0
M  V30 101 C -4.3671 6.3494 0.0495 0
M  V30 102 C -3.2145 6.9220 0.6203 0
M  V30 103 N -2.2106 6.1988 1.0699 0
M  V30 104 C -2.2790 4.8442 1.0325 0
M  V30 105 C -3.3386 4.1907 0.4716 0
M  V30 106 C -4.4081 4.9311 -0.0716 0
M  V30 107 H -7.4073 4.6621 -1.6543 0
M  V30 108 H -7.3533 7.0993 -1.3663 0
M  V30 109 H -5.4117 8.1998 -0.3243 0
M  V30 110 H -3.1213 8.0027 0.6980 0
M  V30 111 H -1.4389 4.3179 1.4803 0
M  V30 112 H -3.3724 3.1137 0.4345 0
M  V30 113 C -5.3995 0.3589 -1.4020 0
M  V30 114 C -4.1507 -0.2741 -1.4209 0
M  V30 115 C -4.0647 -1.6301 -1.6412 0
M  V30 116 C -5.2254 -2.3864 -1.8403 0
M  V30 117 C -6.4733 -1.7504 -1.8363 0
M  V30 118 C -6.5593 -0.3923 -1.6224 0
M  V30 119 H -3.2594 0.3122 -1.2635 0
M  V30 120 H -3.1045 -2.1196 -1.6583 0
M  V30 121 H -7.3683 -2.3327 -1.9966 0
M  V30 122 H -7.5221 0.0967 -1.6144 0
M  V30 123 C -5.1579 -3.7820 -2.0101 0
M  V30 124 C -5.1136 -4.9873 -2.1137 0
M  V30 125 C -5.1517 -6.3920 -2.1700 0
M  V30 126 C -6.3694 -7.0397 -2.2894 0
M  V30 127 C -6.4488 -8.4353 -2.2804 0
M  V30 128 C -5.3221 -9.2064 -2.1334 0
M  V30 129 C -4.0622 -8.5930 -2.0149 0
M  V30 130 C -2.8664 -9.3264 -1.8425 0
M  V30 131 C -1.6741 -8.6697 -1.7489 0
M  V30 132 N -1.5868 -7.3201 -1.8437 0
M  V30 133 C -2.6818 -6.5993 -1.9841 0
M  V30 134 C -3.9611 -7.1717 -2.0564 0
M  V30 135 H -7.2720 -6.4553 -2.3822 0
M  V30 136 H -7.4154 -8.9055 -2.3775 0
M  V30 137 H -5.3894 -10.2826 -2.1057 0
M  V30 138 H -2.9096 -10.4023 -1.7830 0
M  V30 139 H -0.7376 -9.2024 -1.5933 0
M  V30 140 H -2.5642 -5.5198 -2.0523 0
M  V30 141 C -0.4330 2.8980 -5.1810 0
M  V30 142 C -0.5254 4.0748 -4.9153 0
M  V30 143 C -0.6863 5.4277 -4.5630 0
M  V30 144 C -1.1165 6.3626 -5.4889 0
M  V30 145 C -1.3327 7.6954 -5.1206 0
M  V30 146 C -1.1471 8.1103 -3.8267 0
M  V30 147 C -0.7046 7.1894 -2.8533 0
M  V30 148 C -0.5412 7.5391 -1.4992 0
M  V30 149 N -0.1279 6.6819 -0.5899 0
M  V30 150 C 0.2011 5.4153 -0.9494 0
M  V30 151 C 0.0514 4.9675 -2.2304 0
M  V30 152 C -0.4415 5.8395 -3.2223 0
M  V30 153 H -1.2931 6.0558 -6.5086 0
M  V30 154 H -1.6635 8.3971 -5.8708 0
M  V30 155 H -1.3357 9.1335 -3.5434 0
M  V30 156 H -0.7660 8.5482 -1.1629 0
M  V30 157 H 0.5883 4.7861 -0.1502 0
M  V30 158 H 0.2987 3.9534 -2.4999 0
M  V30 159 C -0.3342 1.5237 -5.4697 0
M  V30 160 C -0.0094 0.6169 -4.4534 0
M  V30 161 C 0.0805 -0.7287 -4.7284 0
M  V30 162 C -0.1481 -1.1995 -6.0265 0
M  V30 163 C -0.4740 -0.2931 -7.0429 0
M  V30 164 C -0.5676 1.0531 -6.7672 0
M  V30 165 H 0.1735 0.9832 -3.4557 0
M  V30 166 H 0.3408 -1.4286 -3.9508 0
M  V30 167 H -0.6494 -0.6564 -8.0445 0
M  V30 168 H -0.8172 1.7522 -7.5513 0
M  V30 169 C -0.0225 -2.5698 -6.3233 0
M  V30 170 C 0.1140 -3.7445 -6.5812 0
M  V30 171 C 0.3495 -5.0798 -6.9546 0
M  V30 172 C 0.4841 -5.4050 -8.2933 0
M  V30 173 C 0.7927 -6.7092 -8.6912 0
M  V30 174 C 0.9905 -7.7030 -7.7646 0
M  V30 175 C 0.8537 -7.4218 -6.3936 0
M  V30 176 C 1.0589 -8.3930 -5.3874 0
M  V30 177 C 0.8892 -8.0586 -4.0755 0
M  V30 178 N 0.4956 -6.8182 -3.6939 0
M  V30 179 C 0.3180 -5.8781 -4.6011 0
M  V30 180 C 0.5038 -6.1054 -5.9736 0
M  V30 181 H 0.3603 -4.6352 -9.0395 0
M  V30 182 H 0.8898 -6.9261 -9.7441 0
M  V30 183 H 1.2515 -8.7027 -8.0744 0
M  V30 184 H 1.3514 -9.3921 -5.6683 0
M  V30 185 H 1.0617 -8.7760 -3.2753 0
M  V30 186 H 0.0060 -4.8969 -4.2499 0
M  V30 END ATOM
M  V30 BEGIN BOND
M  V30 1 3 3 4
M  V30 2 1 4 5
M  V30 3 2 5 6
M  V30 4 1 6 7
M  V30 5 2 7 8
M  V30 6 1 8 9
M  V30 7 2 9 10
M  V30 8 1 10 11
M  V30 9 2 11 12
M  V30 10 1 12 13
M  V30 11 2 13 14
M  V30 12 1 14 5
M  V30 13 1 14 9
M  V30 14 1 6 15
M  V30 15 1 7 16
M  V30 16 1 8 17
M  V30 17 1 10 18
M  V30 18 1 12 19
M  V30 19 1 13 20
M  V30 20 2 21 22
M  V30 21 1 22 23
M  V30 22 2 23 24
M  V30 23 1 24 25
M  V30 24 2 25 26
M  V30 25 1 26 21
M  V30 26 1 22 27
M  V30 27 1 23 28
M  V30 28 1 25 29
M  V30 29 1 26 30
M  V30 30 3 31 32
M  V30 31 1 32 33
M  V30 32 2 33 34
M  V30 33 1 34 35
M  V30 34 2 35 36
M  V30 35 1 36 37
M  V30 36 2 37 38
M  V30 37 1 38 39
M  V30 38 2 39 40
M  V30 39 1 40 41
M  V30 40 2 41 42
M  V30 41 1 42 33
M  V30 42 1 42 37
M  V30 43 1 34 43
M  V30 44 1 35 44
M  V30 45 1 36 45
M  V30 46 1 38 46
M  V30 47 1 39 47
M  V30 48 1 41 48
M  V30 49 1 3 21
M  V30 50 1 24 31
M  V30 51 3 49 50
M  V30 52 1 50 51
M  V30 53 2 51 52
M  V30 54 1 52 53
M  V30 55 2 53 54
M  V30 56 1 54 55
M  V30 57 2 55 56
M  V30 58 1 56 57
M  V30 59 2 57 58
M  V30 60 1 58 59
M  V30 61 2 59 60
M  V30 62 1 60 51
M  V30 63 1 60 55
M  V30 64 1 52 61
M  V30 65 1 53 62
M  V30 66 1 54 63
M  V30 67 1 56 64
M  V30 68 1 58 65
M  V30 69 1 59 66
M  V30 70 2 67 68
M  V30 71 1 68 69
M  V30 72 2 69 70
M  V30 73 1 70 71
M  V30 74 2 71 72
M  V30 75 1 72 67
M  V30 76 1 68 73
M  V30 77 1 69 74
M  V30 78 1 71 75
M  V30 79 1 72 76
M  V30 80 3 77 78
M  V30 81 1 78 79
M  V30 82 2 79 80
M  V30 83 1 80 81
M  V30 84 2 81 82
M  V30 85 1 82 83
M  V30 86 2 83 84
M  V30 87 1 84 85
M  V30 88 2 85 86
M  V30 89 1 86 87
M  V30 90 2 87 88
M  V30 91 1 88 79
M  V30 92 1 88 83
M  V30 93 1 80 89
M  V30 94 1 81 90
M  V30 95 1 82 91
M  V30 96 1 84 92
M  V30 97 1 85 93
M  V30 98 1 87 94
M  V30 99 1 49 67
M  V30 100 1 70 77
M  V30 101 3 95 96
M  V30 102 1 96 97
M  V30 103 2 97 98
M  V30 104 1 98 99
M  V30 105 2 99 100
M  V30 106 1 100 101
M  V30 107 2 101 102
M  V30 108 1 102 103
M  V30 109 2 103 104
M  V30 110 1 104 105
M  V30 111 2 105 106
M  V30 112 1 106 97
M  V30 113 1 106 101
M  V30 114 1 98 107
M  V30 115 1 99 108
M  V30 116 1 100 109
M  V30 117 1 102 110
M  V30 118 1 104 111
M  V30 119 1 105 112
M  V30 120 2 113 114
M  V30 121 1 114 115
M  V30 122 2 115 116
M  V30 123 1 116 117
M  V30 124 2 117 118
M  V30 125 1 118 113
M  V30 126 1 114 119
M  V30 127 1 115 120
M  V30 128 1 117 121
M  V30 129 1 118 122
M  V30 130 3 123 124
M  V30 131 1 124 125
M  V30 132 2 125 126
M  V30 133 1 126 127
M  V30 134 2 127 128
M  V30 135 1 128 129
M  V30 136 2 129 130
M  V30 137 1 130 131
M  V30 138 2 131 132
M  V30 139 1 132 133
M  V30 140 2 133 134
M  V30 141 1 134 125
M  V30 142 1 134 129
M  V30 143 1 126 135
M  V30 144 1 127 136
M  V30 145 1 128 137
M  V30 146 1 130 138
M  V30 147 1 131 139
M  V30 148 1 133 140
M  V30 149 1 95 113
M  V30 150 1 116 123
M  V30 151 3 141 142
M  V30 152 1 142 143
M  V30 153 2 143 144
M  V30 154 1 144 145
M  V30 155 2 145 146
M  V30 156 1 146 147
M  V30 157 2 147 148
M  V30 158 1 148 149
M  V30 159 2 149 150
M  V30 160 1 150 151
M  V30 161 2 151 152
M  V30 162 1 152 143
M  V30 163 1 152 147
M  V30 164 1 144 153
M  V30 165 1 145 154
M  V30 166 1 146 155
M  V30 167 1 148 156
M  V30 168 1 150 157
M  V30 169 1 151 158
M  V30 170 2 159 160
M  V30 171 1 160 161
M  V30 172 2 161 162
M  V30 173 1 162 163
M  V30 174 2 163 164
M  V30 175 1 164 159
M  V30 176 1 160 165
M  V30 177 1 161 166
M  V30 178 1 163 167
M  V30 179 1 164 168
M  V30 180 3 169 170
M  V30 181 1 170 171
M  V30 182 2 171 172
M  V30 183 1 172 173
M  V30 184 2 173 174
M  V30 185 1 174 175
M  V30 186 2 175 176
M  V30 187 1 176 177
M  V30 188 2 177 178
M  V30 189 1 178 179
M  V30 190 2 179 180
M  V30 191 1 180 171
M  V30 192 1 180 175
M  V30 193 1 172 181
M  V30 194 1 173 182
M  V30 195 1 174 183
M  V30 196 1 176 184
M  V30 197 1 177 185
M  V30 198 1 179 186
M  V30 199 1 141 159
M  V30 200 1 162 169
M  V30 201 9 40 1
M  V30 202 9 86 1
M  V30 203 9 103 1
M  V30 204 9 149 1
M  V30 205 9 11 2
M  V30 206 9 57 2
M  V30 207 9 132 2
M  V30 208 9 178 2
M  V30 END BOND
M  V30 END CTAB
M  END

$$$$
