
     RDKit          3D

  0  0  0  0  0  0  0  0  0  0999 V3000
M  V30 BEGIN CTAB
M  V30 COUNTS 186 208 0 0 0
M  V30 BEGIN ATOM
M  V30 1 Pd -1.0416 6.8001 -0.1929 0 CHG=2
M  V30 2 Pd 1.2028 -6.8736 -1.0715 0 CHG=2
M  V30 3 C 5.2979 -0.8315 1.4133 0
M  V30 4 C 5.4849 -2.0261 1.3726 0
M  V30 5 C 5.6424 -3.4245 1.3598 0
M  V30 6 C 6.6608 -4.0370 2.0698 0
M  V30 7 C 6.7791 -5.4310 2.1034 0
M  V30 8 C 5.8764 -6.2329 1.4530 0
M  V30 9 C 4.8262 -5.6480 0.7140 0
M  V30 10 C 3.8394 -6.4140 0.0642 0
M  V30 11 N 2.8593 -5.8704 -0.6260 0
M  V30 12 C 2.7951 -4.5224 -0.7694 0
M  V30 13 C 3.6857 -3.6889 -0.1562 0
M  V30 14 C 4.7170 -4.2302 0.6376 0
M  V30 15 H 7.3701 -3.4285 2.6101 0
M  V30 16 H 7.5888 -5.8729 2.6636 0
M  V30 17 H 5.9595 -7.3070 1.4995 0
M  V30 18 H 3.8596 -7.4993 0.1257 0
M  V30 19 H 1.9887 -4.1555 -1.4016 0
M  V30 20 H 3.6131 -2.6185 -0.2627 0
M  V30 21 C 5.0579 0.5549 1.4606 0
M  V30 22 C 5.9297 1.4021 2.1545 0
M  V30 23 C 5.6876 2.7573 2.2011 0
M  V30 24 C 4.5664 3.2954 1.5576 0
M  V30 25 C 3.6925 2.4469 0.8680 0
M  V30 26 C 3.9362 1.0931 0.8182 0
M  V30 27 H 6.7953 0.9876 2.6493 0
M  V30 28 H 6.3621 3.4121 2.7324 0
M  V30 29 H 2.8356 2.8661 0.3658 0
M  V30 30 H 3.2686 0.4380 0.2814 0
M  V30 31 C 4.3436 4.6849 1.5824 0
M  V30 32 C 4.1647 5.8821 1.5778 0
M  V30 33 C 4.0569 7.2833 1.5265 0
M  V30 34 C 5.1367 8.0691 1.8901 0
M  V30 35 C 5.0857 9.4618 1.7783 0
M  V30 36 C 3.9689 10.0911 1.2863 0
M  V30 37 C 2.8433 9.3345 0.9143 0
M  V30 38 C 1.6684 9.9164 0.3863 0
M  V30 39 C 0.6038 9.1259 0.0650 0
M  V30 40 N 0.6175 7.7845 0.2633 0
M  V30 41 C 1.7036 7.2013 0.7307 0
M  V30 42 C 2.8666 7.9164 1.0562 0
M  V30 43 H 6.0361 7.5962 2.2540 0
M  V30 44 H 5.9469 10.0426 2.0715 0
M  V30 45 H 3.9416 11.1641 1.1795 0
M  V30 46 H 1.6266 10.9839 0.2400 0
M  V30 47 H -0.3067 9.5394 -0.3651 0
M  V30 48 H 1.6714 6.1230 0.8706 0
M  V30 49 C -0.2577 -1.9633 4.6978 0
M  V30 50 C -0.0093 -3.1453 4.6281 0
M  V30 51 C 0.3354 -4.5054 4.5110 0
M  V30 52 C 0.6871 -5.2538 5.6207 0
M  V30 53 C 1.0895 -6.5883 5.4923 0
M  V30 54 C 1.1665 -7.1879 4.2615 0
M  V30 55 C 0.8074 -6.4619 3.1057 0
M  V30 56 C 0.9037 -7.0049 1.8102 0
M  V30 57 N 0.5636 -6.3317 0.7312 0
M  V30 58 C 0.0582 -5.0776 0.8440 0
M  V30 59 C -0.0473 -4.4485 2.0513 0
M  V30 60 C 0.3593 -5.1155 3.2248 0
M  V30 61 H 0.6586 -4.7973 6.5984 0
M  V30 62 H 1.3541 -7.1413 6.3803 0
M  V30 63 H 1.4976 -8.2096 4.1657 0
M  V30 64 H 1.2777 -8.0159 1.6669 0
M  V30 65 H -0.2584 -4.6120 -0.0867 0
M  V30 66 H -0.4360 -3.4455 2.1245 0
M  V30 67 C -0.5483 -0.5863 4.7482 0
M  V30 68 C -1.0171 -0.0002 5.9293 0
M  V30 69 C -1.3203 1.3431 5.9616 0
M  V30 70 C -1.1560 2.1313 4.8156 0
M  V30 71 C -0.6667 1.5481 3.6412 0
M  V30 72 C -0.3699 0.2044 3.6065 0
M  V30 73 H -1.1487 -0.6085 6.8117 0
M  V30 74 H -1.6916 1.7944 6.8696 0
M  V30 75 H -0.5284 2.1596 2.7642 0
M  V30 76 H 0.0039 -0.2502 2.7028 0
M  V30 77 C -1.5177 3.4912 4.8504 0
M  V30 78 C -1.8717 4.6485 4.8776 0
M  V30 79 C -2.3693 5.9604 4.9701 0
M  V30 80 C -2.9062 6.4063 6.1657 0
M  V30 81 C -3.4702 7.6810 6.2731 0
M  V30 82 C -3.5259 8.5229 5.1899 0
M  V30 83 C -2.9875 8.1159 3.9561 0
M  V30 84 C -3.0285 8.9251 2.7981 0
M  V30 85 C -2.4739 8.4759 1.6353 0
M  V30 86 N -1.8504 7.2748 1.5525 0
M  V30 87 C -1.8094 6.4821 2.6052 0
M  V30 88 C -2.3787 6.8322 3.8393 0
M  V30 89 H -2.8960 5.7541 7.0255 0
M  V30 90 H -3.8777 7.9949 7.2219 0
M  V30 91 H -3.9806 9.4977 5.2708 0
M  V30 92 H -3.5029 9.8923 2.8452 0
M  V30 93 H -2.5080 9.0639 0.7199 0
M  V30 94 H -1.3020 5.5263 2.4917 0
M  V30 95 C -5.0376 0.7994 -2.9414 0
M  V30 96 C -5.2106 1.9965 -2.9134 0
M  V30 97 C -5.3507 3.3973 -2.9094 0
M  V30 98 C -6.3151 4.0234 -3.6796 0
M  V30 99 C -6.4104 5.4193 -3.7211 0
M  V30 100 C -5.5385 6.2084 -3.0158 0
M  V30 101 C -4.5465 5.6089 -2.2106 0
M  V30 102 C -3.5955 6.3610 -1.4950 0
M  V30 103 N -2.6732 5.8042 -0.7385 0
M  V30 104 C -2.6389 4.4558 -0.5908 0
M  V30 105 C -3.4963 3.6343 -1.2649 0
M  V30 106 C -4.4622 4.1897 -2.1284 0
M  V30 107 H -6.9977 3.4249 -4.2635 0
M  V30 108 H -7.1767 5.8722 -4.3311 0
M  V30 109 H -5.6024 7.2836 -3.0679 0
M  V30 110 H -3.5963 7.4466 -1.5582 0
M  V30 111 H -1.8887 4.0769 0.0998 0
M  V30 112 H -3.4473 2.5634 -1.1501 0
M  V30 113 C -4.8114 -0.5906 -2.9564 0
M  V30 114 C -3.5509 -1.0939 -2.6126 0
M  V30 115 C -3.3249 -2.4517 -2.6080 0
M  V30 116 C -4.3557 -3.3385 -2.9396 0
M  V30 117 C -5.6122 -2.8340 -3.2979 0
M  V30 118 C -5.8369 -1.4749 -3.3091 0
M  V30 119 H -2.7608 -0.4069 -2.3544 0
M  V30 120 H -2.3549 -2.8418 -2.3457 0
M  V30 121 H -6.4055 -3.5178 -3.5603 0
M  V30 122 H -6.8073 -1.0868 -3.5806 0
M  V30 123 C -4.1565 -4.7308 -2.8844 0
M  V30 124 C -4.0078 -5.9290 -2.7982 0
M  V30 125 C -3.9363 -7.3262 -2.6548 0
M  V30 126 C -5.0479 -8.1013 -2.9377 0
M  V30 127 C -5.0320 -9.4853 -2.7415 0
M  V30 128 C -3.9184 -10.1159 -2.2436 0
M  V30 129 C -2.7633 -9.3706 -1.9476 0
M  V30 130 C -1.5908 -9.9538 -1.4158 0
M  V30 131 C -0.4986 -9.1757 -1.1647 0
M  V30 132 N -0.4841 -7.8473 -1.4352 0
M  V30 133 C -1.5650 -7.2623 -1.9125 0
M  V30 134 C -2.7524 -7.9632 -2.1741 0
M  V30 135 H -5.9435 -7.6259 -3.3075 0
M  V30 136 H -5.9170 -10.0575 -2.9747 0
M  V30 137 H -3.9168 -11.1810 -2.0737 0
M  V30 138 H -1.5730 -11.0122 -1.2100 0
M  V30 139 H 0.4121 -9.5887 -0.7345 0
M  V30 140 H -1.5089 -6.1941 -2.1112 0
M  V30 141 C 0.6991 1.9246 -5.9062 0
M  V30 142 C 0.4688 3.1107 -5.8421 0
M  V30 143 C 0.1403 4.4749 -5.7349 0
M  V30 144 C -0.1309 5.2366 -6.8586 0
M  V30 145 C -0.5154 6.5774 -6.7451 0
M  V30 146 C -0.6574 7.1706 -5.5167 0
M  V30 147 C -0.3861 6.4300 -4.3465 0
M  V30 148 C -0.5589 6.9642 -3.0553 0
M  V30 149 N -0.3056 6.2753 -1.9627 0
M  V30 150 C 0.1819 5.0120 -2.0531 0
M  V30 151 C 0.3581 4.3917 -3.2565 0
M  V30 152 C 0.0453 5.0767 -4.4482 0
M  V30 153 H -0.0498 4.7862 -7.8362 0
M  V30 154 H -0.7141 7.1414 -7.6435 0
M  V30 155 H -0.9747 8.1978 -5.4338 0
M  V30 156 H -0.9225 7.9807 -2.9270 0
M  V30 157 H 0.4193 4.5316 -1.1059 0
M  V30 158 H 0.7287 3.3811 -3.3147 0
M  V30 159 C 0.9544 0.5413 -5.9621 0
M  V30 160 C 1.1007 -0.1916 -4.7781 0
M  V30 161 C 1.3422 -1.5457 -4.8269 0
M  V30 162 C 1.4472 -2.1988 -6.0604 0
M  V30 163 C 1.2999 -1.4664 -7.2447 0
M  V30 164 C 1.0546 -0.1119 -7.1961 0
M  V30 165 H 1.0266 0.3154 -3.8291 0
M  V30 166 H 1.4660 -2.1113 -3.9174 0
M  V30 167 H 1.3818 -1.9702 -8.1963 0
M  V30 168 H 0.9426 0.4531 -8.1094 0
M  V30 169 C 1.7300 -3.5765 -6.1190 0
M  V30 170 C 2.0012 -4.7552 -6.1663 0
M  V30 171 C 2.4058 -6.0972 -6.2804 0
M  V30 172 C 2.8629 -6.5758 -7.4960 0
M  V30 173 C 3.3421 -7.8831 -7.6226 0
M  V30 174 C 3.3913 -8.7259 -6.5397 0
M  V30 175 C 2.9277 -8.2868 -5.2867 0
M  V30 176 C 2.9645 -9.0964 -4.1287 0
M  V30 177 C 2.4787 -8.6158 -2.9478 0
M  V30 178 N 1.9251 -7.3819 -2.8461 0
M  V30 179 C 1.8948 -6.5876 -3.8980 0
M  V30 180 C 2.4026 -6.9689 -5.1497 0
M  V30 181 H 2.8598 -5.9237 -8.3560 0
M  V30 182 H 3.6904 -8.2220 -8.5863 0
M  V30 183 H 3.7834 -9.7262 -6.6360 0
M  V30 184 H 3.3805 -10.0894 -4.1904 0
M  V30 185 H 2.5132 -9.2044 -2.0329 0
M  V30 186 H 1.4450 -5.6054 -3.7700 0
M  V30 END ATOM
M  V30 BEGIN BOND
M  V30 1 3 3 4
M  V30 2 1 4 5
M  V30 3 2 5 6
M  V30 4 1 6 7
M  V30 5 2 7 8
M  V30 6 1 8 9
M  V30 7 2 9 10
M  V30 8 1 10 11
M  V30 9 2 11 12
M  V30 10 1 12 13
M  V30 11 2 13 14
M  V30 12 1 14 5
M  V30 13 1 14 9
M  V30 14 1 6 15
M  V30 15 1 7 16
M  V30 16 1 8 17
M  V30 17 1 10 18
M  V30 18 1 12 19
M  V30 19 1 13 20
M  V30 20 2 21 22
M  V30 21 1 22 23
M  V30 22 2 23 24
M  V30 23 1 24 25
M  V30 24 2 25 26
M  V30 25 1 26 21
M  V30 26 1 22 27
M  V30 27 1 23 28
M  V30 28 1 25 29
M  V30 29 1 26 30
M  V30 30 3 31 32
M  V30 31 1 32 33
M  V30 32 2 33 34
M  V30 33 1 34 35
M  V30 34 2 35 36
M  V30 35 1 36 37
M  V30 36 2 37 38
M  V30 37 1 38 39
M  V30 38 2 39 40
M  V30 39 1 40 41
M  V30 40 2 41 42
M  V30 41 1 42 33
M  V30 42 1 42 37
M  V30 43 1 34 43
M  V30 44 1 35 44
M  V30 45 1 36 45
M  V30 46 1 38 46
M  V30 47 1 39 47
M  V30 48 1 41 48
M  V30 49 1 3 21
M  V30 50 1 24 31
M  V30 51 3 49 50
M  V30 52 1 50 51
M  V30 53 2 51 52
M  V30 54 1 52 53
M  V30 55 2 53 54
M  V30 56 1 54 55
M  V30 57 2 55 56
M  V30 58 1 56 57
M  V30 59 2 57 58
M  V30 60 1 58 59
M  V30 61 2 59 60
M  V30 62 1 60 51
M  V30 63 1 60 55
M  V30 64 1 52 61
M  V30 65 1 53 62
M  V30 66 1 54 63
M  V30 67 1 56 64
M  V30 68 1 58 65
M  V30 69 1 59 66
M  V30 70 2 67 68
M  V30 71 1 68 69
M  V30 72 2 69 70
M  V30 73 1 70 71
M  V30 74 2 71 72
M  V30 75 1 72 67
M  V30 76 1 68 73
M  V30 77 1 69 74
M  V30 78 1 71 75
M  V30 79 1 72 76
M  V30 80 3 77 78
M  V30 81 1 78 79
M  V30 82 2 79 80
M  V30 83 1 80 81
M  V30 84 2 81 82
M  V30 85 1 82 83
M  V30 86 2 83 84
M  V30 87 1 84 85
M  V30 88 2 85 86
M  V30 89 1 86 87
M  V30 90 2 87 88
M  V30 91 1 88 79
M  V30 92 1 88 83
M  V30 93 1 80 89
M  V30 94 1 81 90
M  V30 95 1 82 91
M  V30 96 1 84 92
M  V30 97 1 85 93
M  V30 98 1 87 94
M  V30 99 1 49 67
M  V30 100 1 70 77
M  V30 101 3 95 96
M  V30 102 1 96 97
M  V30 103 2 97 98
M  V30 104 1 98 99
M  V30 105 2 99 100
M  V30 106 1 100 101
M  V30 107 2 101 102
M  V30 108 1 102 103
M  V30 109 2 103 104
M  V30 110 1 104 105
M  V30 111 2 105 106
M  V30 112 1 106 97
M  V30 113 1 106 101
M  V30 114 1 98 107
M  V30 115 1 99 108
M  V30 116 1 100 109
M  V30 117 1 102 110
M  V30 118 1 104 111
M  V30 119 1 105 112
M  V30 120 2 113 114
M  V30 121 1 114 115
M  V30 122 2 115 116
M  V30 123 1 116 117
M  V30 124 2 117 118
M  V30 125 1 118 113
M  V30 126 1 114 119
M  V30 127 1 115 120
M  V30 128 1 117 121
M  V30 129 1 118 122
M  V30 130 3 123 124
M  V30 131 1 124 125
M  V30 132 2 125 126
M  V30 133 1 126 127
M  V30 134 2 127 128
M  V30 135 1 128 129
M  V30 136 2 129 130
M  V30 137 1 130 131
M  V30 138 2 131 132
M  V30 139 1 132 133
M  V30 140 2 133 134
M  V30 141 1 134 125
M  V30 142 1 134 129
M  V30 143 1 126 135
M  V30 144 1 127 136
M  V30 145 1 128 137
M  V30 146 1 130 138
M  V30 147 1 131 139
M  V30 148 1 133 140
M  V30 149 1 95 113
M  V30 150 1 116 123
M  V30 151 3 141 142
M  V30 152 1 142 143
M  V30 153 2 143 144
M  V30 154 1 144 145
M  V30 155 2 145 146
M  V30 156 1 146 147
M  V30 157 2 147 148
M  V30 158 1 148 149
M  V30 159 2 149 150
M  V30 160 1 150 151
M  V30 161 2 151 152
M  V30 162 1 152 143
M  V30 163 1 152 147
M  V30 164 1 144 153
M  V30 165 1 145 154
M  V30 166 1 146 155
M  V30 167 1 148 156
M  V30 168 1 150 157
M  V30 169 1 151 158
M  V30 170 2 159 160
M  V30 171 1 160 161
M  V30 172 2 161 162
M  V30 173 1 162 163
M  V30 174 2 163 164
M  V30 175 1 164 159
M  V30 176 1 160 165
M  V30 177 1 161 166
M  V30 178 1 163 167
M  V30 179 1 164 168
M  V30 180 3 169 170
M  V30 181 1 170 171
M  V30 182 2 171 172
M  V30 183 1 172 173
M  V30 184 2 173 174
M  V30 185 1 174 175
M  V30 186 2 175 176
M  V30 187 1 176 177
M  V30 188 2 177 178
M  V30 189 1 178 179
M  V30 190 2 179 180
M  V30 191 1 180 171
M  V30 192 1 180 175
M  V30 193 1 172 181
M  V30 194 1 173 182
M  V30 195 1 174 183
M  V30 196 1 176 184
M  V30 197 1 177 185
M  V30 198 1 179 186
M  V30 199 1 141 159
M  V30 200 1 162 169
M  V30 201 9 40 1
M  V30 202 9 86 1
M  V30 203 9 103 1
M  V30 204 9 149 1
M  V30 205 9 11 2
M  V30 206 9 57 2
M  V30 207 9 132 2
M  V30 208 9 178 2
M  V30 END BOND
M  V30 END CTAB
M  END

$$$$
