
     RDKit          3D

  0  0  0  0  0  0  0  0  0  0999 V3000
M  V30 BEGIN CTAB
M  V30 COUNTS 186 208 0 0 0
M  V30 BEGIN ATOM
M  V30 1 Pd 0.9202 6.7534 0.7461 0 CHG=2
M  V30 2 Pd -1.8126 -6.7122 -1.2508 0 CHG=2
M  V30 3 C 3.9331 -1.9688 -3.2357 0
M  V30 4 C 3.7175 -3.1504 -3.3815 0
M  V30 5 C 3.4577 -4.5298 -3.4822 0
M  V30 6 C 4.4460 -5.4182 -3.8700 0
M  V30 7 C 4.2015 -6.7955 -3.9118 0
M  V30 8 C 2.9827 -7.3085 -3.5477 0
M  V30 9 C 1.9469 -6.4363 -3.1507 0
M  V30 10 C 0.6896 -6.9009 -2.7193 0
M  V30 11 N -0.2780 -6.0891 -2.3490 0
M  V30 12 C -0.1004 -4.7453 -2.4146 0
M  V30 13 C 1.0899 -4.1929 -2.7916 0
M  V30 14 C 2.1687 -5.0297 -3.1421 0
M  V30 15 H 5.4214 -5.0415 -4.1383 0
M  V30 16 H 4.9948 -7.4573 -4.2237 0
M  V30 17 H 2.8060 -8.3721 -3.5612 0
M  V30 18 H 0.4862 -7.9679 -2.6728 0
M  V30 19 H -0.9666 -4.1436 -2.1460 0
M  V30 20 H 1.2245 -3.1237 -2.8219 0
M  V30 21 C 4.1703 -0.5939 -3.0479 0
M  V30 22 C 5.4166 -0.0400 -3.3624 0
M  V30 23 C 5.6445 1.3051 -3.1725 0
M  V30 24 C 4.6320 2.1260 -2.6607 0
M  V30 25 C 3.3876 1.5703 -2.3419 0
M  V30 26 C 3.1584 0.2269 -2.5350 0
M  V30 27 H 6.1969 -0.6725 -3.7588 0
M  V30 28 H 6.6042 1.7341 -3.4191 0
M  V30 29 H 2.6076 2.2073 -1.9571 0
M  V30 30 H 2.1982 -0.2024 -2.2971 0
M  V30 31 C 4.8621 3.5053 -2.5001 0
M  V30 32 C 5.0472 4.6962 -2.3876 0
M  V30 33 C 5.2854 6.0820 -2.3649 0
M  V30 34 C 6.3753 6.6027 -3.0408 0
M  V30 35 C 6.5962 7.9820 -3.0994 0
M  V30 36 C 5.7276 8.8630 -2.5039 0
M  V30 37 C 4.6122 8.3796 -1.7969 0
M  V30 38 C 3.6708 9.2307 -1.1746 0
M  V30 39 C 2.6217 8.6952 -0.4860 0
M  V30 40 N 2.4601 7.3559 -0.3474 0
M  V30 41 C 3.3031 6.5291 -0.9337 0
M  V30 42 C 4.3931 6.9747 -1.6974 0
M  V30 43 H 7.0577 5.9319 -3.5402 0
M  V30 44 H 7.4568 8.3522 -3.6354 0
M  V30 45 H 5.8883 9.9275 -2.5710 0
M  V30 46 H 3.7909 10.2993 -1.2532 0
M  V30 47 H 1.8666 9.3222 -0.0151 0
M  V30 48 H 3.1333 5.4631 -0.7989 0
M  V30 49 C 3.0865 -2.7624 3.2131 0
M  V30 50 C 2.8861 -3.9364 3.0003 0
M  V30 51 C 2.6599 -5.2901 2.6861 0
M  V30 52 C 3.5509 -6.2748 3.0754 0
M  V30 53 C 3.3548 -7.6111 2.7074 0
M  V30 54 C 2.2850 -7.9811 1.9334 0
M  V30 55 C 1.3481 -7.0085 1.5235 0
M  V30 56 C 0.2522 -7.3151 0.6944 0
M  V30 57 N -0.6263 -6.4108 0.3156 0
M  V30 58 C -0.5204 -5.1331 0.7595 0
M  V30 59 C 0.5217 -4.7254 1.5419 0
M  V30 60 C 1.5139 -5.6517 1.9225 0
M  V30 61 H 4.4144 -6.0053 3.6643 0
M  V30 62 H 4.0693 -8.3518 3.0314 0
M  V30 63 H 2.1500 -9.0084 1.6346 0
M  V30 64 H 0.1067 -8.3302 0.3326 0
M  V30 65 H -1.3194 -4.4609 0.4543 0
M  V30 66 H 0.6018 -3.7028 1.8744 0
M  V30 67 C 3.2951 -1.3890 3.4438 0
M  V30 68 C 4.0999 -0.9593 4.5049 0
M  V30 69 C 4.2790 0.3868 4.7359 0
M  V30 70 C 3.6621 1.3330 3.9078 0
M  V30 71 C 2.8748 0.9016 2.8341 0
M  V30 72 C 2.6902 -0.4433 2.6069 0
M  V30 73 H 4.5717 -1.6884 5.1467 0
M  V30 74 H 4.8917 0.7196 5.5605 0
M  V30 75 H 2.4120 1.6317 2.1901 0
M  V30 76 H 2.0816 -0.7805 1.7829 0
M  V30 77 C 3.8139 2.7042 4.1871 0
M  V30 78 C 3.9150 3.8791 4.4607 0
M  V30 79 C 4.0233 5.2154 4.8849 0
M  V30 80 C 4.7669 5.5176 6.0129 0
M  V30 81 C 4.8402 6.8257 6.5004 0
M  V30 82 C 4.1608 7.8483 5.8855 0
M  V30 83 C 3.3975 7.5906 4.7329 0
M  V30 84 C 2.6597 8.5928 4.0628 0
M  V30 85 C 1.9511 8.2786 2.9400 0
M  V30 86 N 1.9488 7.0276 2.4172 0
M  V30 87 C 2.6077 6.0607 3.0247 0
M  V30 88 C 3.3400 6.2681 4.2039 0
M  V30 89 H 5.2907 4.7269 6.5280 0
M  V30 90 H 5.4311 7.0238 7.3816 0
M  V30 91 H 4.2026 8.8527 6.2766 0
M  V30 92 H 2.6618 9.5991 4.4499 0
M  V30 93 H 1.3544 9.0209 2.4130 0
M  V30 94 H 2.5749 5.0721 2.5716 0
M  V30 95 C -4.9665 2.0822 2.4943 0
M  V30 96 C -4.7524 3.2661 2.6213 0
M  V30 97 C -4.4891 4.6467 2.7026 0
M  V30 98 C -5.4907 5.5505 3.0110 0
M  V30 99 C -5.2389 6.9273 3.0294 0
M  V30 100 C -3.9976 7.4228 2.7230 0
M  V30 101 C -2.9462 6.5339 2.4124 0
M  V30 102 C -1.6609 6.9789 2.0491 0
M  V30 103 N -0.6771 6.1516 1.7649 0
M  V30 104 C -0.8685 4.8115 1.8571 0
M  V30 105 C -2.0849 4.2765 2.1711 0
M  V30 106 C -3.1780 5.1289 2.4273 0
M  V30 107 H -6.4828 5.1871 3.2318 0
M  V30 108 H -6.0441 7.6018 3.2768 0
M  V30 109 H -3.8140 8.4854 2.7177 0
M  V30 110 H -1.4477 8.0434 1.9860 0
M  V30 111 H 0.0088 4.1966 1.6686 0
M  V30 112 H -2.2265 3.2090 2.2254 0
M  V30 113 C -5.1869 0.7002 2.3368 0
M  V30 114 C -4.3227 -0.0551 1.5348 0
M  V30 115 C -4.5201 -1.4094 1.3882 0
M  V30 116 C -5.5814 -2.0419 2.0458 0
M  V30 117 C -6.4545 -1.2835 2.8359 0
M  V30 118 C -6.2612 0.0730 2.9776 0
M  V30 119 H -3.5043 0.4360 1.0329 0
M  V30 120 H -3.8575 -1.9929 0.7698 0
M  V30 121 H -7.2773 -1.7702 3.3379 0
M  V30 122 H -6.9318 0.6564 3.5910 0
M  V30 123 C -5.7625 -3.4345 1.9515 0
M  V30 124 C -5.9009 -4.6365 1.9115 0
M  V30 125 C -6.0864 -6.0292 1.9725 0
M  V30 126 C -7.1283 -6.5490 2.7213 0
M  V30 127 C -7.3006 -7.9295 2.8579 0
M  V30 128 C -6.4295 -8.8124 2.2686 0
M  V30 129 C -5.3598 -8.3309 1.4930 0
M  V30 130 C -4.4171 -9.1835 0.8750 0
M  V30 131 C -3.4106 -8.6518 0.1229 0
M  V30 132 N -3.2929 -7.3166 -0.0807 0
M  V30 133 C -4.1403 -6.4870 0.4956 0
M  V30 134 C -5.1905 -6.9265 1.3164 0
M  V30 135 H -7.8125 -5.8753 3.2142 0
M  V30 136 H -8.1254 -8.2984 3.4483 0
M  V30 137 H -6.5533 -9.8765 2.3934 0
M  V30 138 H -4.5018 -10.2503 1.0078 0
M  V30 139 H -2.6551 -9.2784 -0.3479 0
M  V30 140 H -4.0057 -5.4240 0.3070 0
M  V30 141 C -3.7672 2.7818 -3.9118 0
M  V30 142 C -3.5599 3.9578 -3.7170 0
M  V30 143 C -3.3313 5.3147 -3.4218 0
M  V30 144 C -4.1843 6.3018 -3.8847 0
M  V30 145 C -3.9883 7.6439 -3.5400 0
M  V30 146 C -2.9589 8.0188 -2.7149 0
M  V30 147 C -2.0641 7.0436 -2.2253 0
M  V30 148 C -1.0171 7.3549 -1.3368 0
M  V30 149 N -0.1810 6.4470 -0.8795 0
M  V30 150 C -0.2816 5.1591 -1.2956 0
M  V30 151 C -1.2785 4.7479 -2.1329 0
M  V30 152 C -2.2273 5.6797 -2.6004 0
M  V30 153 H -5.0164 6.0296 -4.5161 0
M  V30 154 H -4.6709 8.3865 -3.9237 0
M  V30 155 H -2.8248 9.0514 -2.4350 0
M  V30 156 H -0.8762 8.3764 -0.9924 0
M  V30 157 H 0.4817 4.4824 -0.9164 0
M  V30 158 H -1.3589 3.7181 -2.4417 0
M  V30 159 C -4.0018 1.4090 -4.1171 0
M  V30 160 C -3.1651 0.4590 -3.5186 0
M  V30 161 C -3.3948 -0.8846 -3.7093 0
M  V30 162 C -4.4637 -1.3106 -4.5061 0
M  V30 163 C -5.3013 -0.3609 -5.1040 0
M  V30 164 C -5.0738 0.9837 -4.9104 0
M  V30 165 H -2.3379 0.7902 -2.9110 0
M  V30 166 H -2.7464 -1.6186 -3.2587 0
M  V30 167 H -6.1253 -0.6898 -5.7195 0
M  V30 168 H -5.7187 1.7159 -5.3728 0
M  V30 169 C -4.6834 -2.6820 -4.7354 0
M  V30 170 C -4.8524 -3.8605 -4.9536 0
M  V30 171 C -5.0379 -5.2070 -5.3147 0
M  V30 172 C -5.8504 -5.5242 -6.3893 0
M  V30 173 C -5.9949 -6.8468 -6.8188 0
M  V30 174 C -5.3196 -7.8691 -6.1990 0
M  V30 175 C -4.4910 -7.5960 -5.0961 0
M  V30 176 C -3.7557 -8.5977 -4.4227 0
M  V30 177 C -2.9862 -8.2675 -3.3454 0
M  V30 178 N -2.9214 -6.9996 -2.8687 0
M  V30 179 C -3.5733 -6.0330 -3.4843 0
M  V30 180 C -4.3618 -6.2575 -4.6236 0
M  V30 181 H -6.3704 -4.7348 -6.9102 0
M  V30 182 H -6.6373 -7.0567 -7.6605 0
M  V30 183 H -5.4153 -8.8854 -6.5478 0
M  V30 184 H -3.8088 -9.6170 -4.7706 0
M  V30 185 H -2.3898 -9.0105 -2.8190 0
M  V30 186 H -3.4899 -5.0307 -3.0698 0
M  V30 END ATOM
M  V30 BEGIN BOND
M  V30 1 3 3 4
M  V30 2 1 4 5
M  V30 3 2 5 6
M  V30 4 1 6 7
M  V30 5 2 7 8
M  V30 6 1 8 9
M  V30 7 2 9 10
M  V30 8 1 10 11
M  V30 9 2 11 12
M  V30 10 1 12 13
M  V30 11 2 13 14
M  V30 12 1 14 5
M  V30 13 1 14 9
M  V30 14 1 6 15
M  V30 15 1 7 16
M  V30 16 1 8 17
M  V30 17 1 10 18
M  V30 18 1 12 19
M  V30 19 1 13 20
M  V30 20 2 21 22
M  V30 21 1 22 23
M  V30 22 2 23 24
M  V30 23 1 24 25
M  V30 24 2 25 26
M  V30 25 1 26 21
M  V30 26 1 22 27
M  V30 27 1 23 28
M  V30 28 1 25 29
M  V30 29 1 26 30
M  V30 30 3 31 32
M  V30 31 1 32 33
M  V30 32 2 33 34
M  V30 33 1 34 35
M  V30 34 2 35 36
M  V30 35 1 36 37
M  V30 36 2 37 38
M  V30 37 1 38 39
M  V30 38 2 39 40
M  V30 39 1 40 41
M  V30 40 2 41 42
M  V30 41 1 42 33
M  V30 42 1 42 37
M  V30 43 1 34 43
M  V30 44 1 35 44
M  V30 45 1 36 45
M  V30 46 1 38 46
M  V30 47 1 39 47
M  V30 48 1 41 48
M  V30 49 1 3 21
M  V30 50 1 24 31
M  V30 51 3 49 50
M  V30 52 1 50 51
M  V30 53 2 51 52
M  V30 54 1 52 53
M  V30 55 2 53 54
M  V30 56 1 54 55
M  V30 57 2 55 56
M  V30 58 1 56 57
M  V30 59 2 57 58
M  V30 60 1 58 59
M  V30 61 2 59 60
M  V30 62 1 60 51
M  V30 63 1 60 55
M  V30 64 1 52 61
M  V30 65 1 53 62
M  V30 66 1 54 63
M  V30 67 1 56 64
M  V30 68 1 58 65
M  V30 69 1 59 66
M  V30 70 2 67 68
M  V30 71 1 68 69
M  V30 72 2 69 70
M  V30 73 1 70 71
M  V30 74 2 71 72
M  V30 75 1 72 67
M  V30 76 1 68 73
M  V30 77 1 69 74
M  V30 78 1 71 75
M  V30 79 1 72 76
M  V30 80 3 77 78
M  V30 81 1 78 79
M  V30 82 2 79 80
M  V30 83 1 80 81
M  V30 84 2 81 82
M  V30 85 1 82 83
M  V30 86 2 83 84
M  V30 87 1 84 85
M  V30 88 2 85 86
M  V30 89 1 86 87
M  V30 90 2 87 88
M  V30 91 1 88 79
M  V30 92 1 88 83
M  V30 93 1 80 89
M  V30 94 1 81 90
M  V30 95 1 82 91
M  V30 96 1 84 92
M  V30 97 1 85 93
M  V30 98 1 87 94
M  V30 99 1 49 67
M  V30 100 1 70 77
M  V30 101 3 95 96
M  V30 102 1 96 97
M  V30 103 2 97 98
M  V30 104 1 98 99
M  V30 105 2 99 100
M  V30 106 1 100 101
M  V30 107 2 101 102
M  V30 108 1 102 103
M  V30 109 2 103 104
M  V30 110 1 104 105
M  V30 111 2 105 106
M  V30 112 1 106 97
M  V30 113 1 106 101
M  V30 114 1 98 107
M  V30 115 1 99 108
M  V30 116 1 100 109
M  V30 117 1 102 110
M  V30 118 1 104 111
M  V30 119 1 105 112
M  V30 120 2 113 114
M  V30 121 1 114 115
M  V30 122 2 115 116
M  V30 123 1 116 117
M  V30 124 2 117 118
M  V30 125 1 118 113
M  V30 126 1 114 119
M  V30 127 1 115 120
M  V30 128 1 117 121
M  V30 129 1 118 122
M  V30 130 3 123 124
M  V30 131 1 124 125
M  V30 132 2 125 126
M  V30 133 1 126 127
M  V30 134 2 127 128
M  V30 135 1 128 129
M  V30 136 2 129 130
M  V30 137 1 130 131
M  V30 138 2 131 132
M  V30 139 1 132 133
M  V30 140 2 133 134
M  V30 141 1 134 125
M  V30 142 1 134 129
M  V30 143 1 126 135
M  V30 144 1 127 136
M  V30 145 1 128 137
M  V30 146 1 130 138
M  V30 147 1 131 139
M  V30 148 1 133 140
M  V30 149 1 95 113
M  V30 150 1 116 123
M  V30 151 3 141 142
M  V30 152 1 142 143
M  V30 153 2 143 144
M  V30 154 1 144 145
M  V30 155 2 145 146
M  V30 156 1 146 147
M  V30 157 2 147 148
M  V30 158 1 148 149
M  V30 159 2 149 150
M  V30 160 1 150 151
M  V30 161 2 151 152
M  V30 162 1 152 143
M  V30 163 1 152 147
M  V30 164 1 144 153
M  V30 165 1 145 154
M  V30 166 1 146 155
M  V30 167 1 148 156
M  V30 168 1 150 157
M  V30 169 1 151 158
M  V30 170 2 159 160
M  V30 171 1 160 161
M  V30 172 2 161 162
M  V30 173 1 162 163
M  V30 174 2 163 164
M  V30 175 1 164 159
M  V30 176 1 160 165
M  V30 177 1 161 166
M  V30 178 1 163 167
M  V30 179 1 164 168
M  V30 180 3 169 170
M  V30 181 1 170 171
M  V30 182 2 171 172
M  V30 183 1 172 173
M  V30 184 2 173 174
M  V30 185 1 174 175
M  V30 186 2 175 176
M  V30 187 1 176 177
M  V30 188 2 177 178
M  V30 189 1 178 179
M  V30 190 2 179 180
M  V30 191 1 180 171
M  V30 192 1 180 175
M  V30 193 1 172 181
M  V30 194 1 173 182
M  V30 195 1 174 183
M  V30 196 1 176 184
M  V30 197 1 177 185
M  V30 198 1 179 186
M  V30 199 1 141 159
M  V30 200 1 162 169
M  V30 201 9 40 1
M  V30 202 9 86 1
M  V30 203 9 103 1
M  V30 204 9 149 1
M  V30 205 9 11 2
M  V30 206 9 57 2
M  V30 207 9 132 2
M  V30 208 9 178 2
M  V30 END BOND
M  V30 END CTAB
M  END

$$$$
