
     RDKit          3D

  0  0  0  0  0  0  0  0  0  0999 V3000
M  V30 BEGIN CTAB
M  V30 COUNTS 186 208 0 0 0
M  V30 BEGIN ATOM
M  V30 1 Pd -1.7239 6.8819 0.0165 0 CHG=2
M  V30 2 Pd 2.7229 -6.2677 0.3185 0 CHG=2
M  V30 3 C 6.1460 0.6411 0.3712 0
M  V30 4 C 6.5375 -0.5020 0.4342 0
M  V30 5 C 6.9499 -1.8415 0.5615 0
M  V30 6 C 8.2389 -2.1598 0.9530 0
M  V30 7 C 8.6288 -3.4913 1.1364 0
M  V30 8 C 7.7393 -4.5195 0.9560 0
M  V30 9 C 6.4167 -4.2379 0.5524 0
M  V30 10 C 5.4424 -5.2425 0.3968 0
M  V30 11 N 4.2085 -4.9820 0.0201 0
M  V30 12 C 3.8429 -3.7094 -0.2775 0
M  V30 13 C 4.7033 -2.6593 -0.1320 0
M  V30 14 C 6.0172 -2.8905 0.3230 0
M  V30 15 H 8.9514 -1.3672 1.1248 0
M  V30 16 H 9.6436 -3.7014 1.4373 0
M  V30 17 H 8.0387 -5.5425 1.1192 0
M  V30 18 H 5.6903 -6.2819 0.5972 0
M  V30 19 H 2.8229 -3.5857 -0.6361 0
M  V30 20 H 4.3953 -1.6503 -0.3538 0
M  V30 21 C 5.6704 1.9645 0.3062 0
M  V30 22 C 6.5362 3.0410 0.5312 0
M  V30 23 C 6.0645 4.3336 0.4706 0
M  V30 24 C 4.7153 4.5788 0.1866 0
M  V30 25 C 3.8491 3.5016 -0.0335 0
M  V30 26 C 4.3212 2.2099 0.0234 0
M  V30 27 H 7.5770 2.8522 0.7485 0
M  V30 28 H 6.7327 5.1648 0.6396 0
M  V30 29 H 2.8133 3.6947 -0.2613 0
M  V30 30 H 3.6576 1.3783 -0.1531 0
M  V30 31 C 4.2479 5.9032 0.0943 0
M  V30 32 C 3.8490 7.0410 -0.0140 0
M  V30 33 C 3.4619 8.3774 -0.2183 0
M  V30 34 C 4.4281 9.3579 -0.3632 0
M  V30 35 C 4.0762 10.6819 -0.6421 0
M  V30 36 C 2.7616 11.0458 -0.7996 0
M  V30 37 C 1.7447 10.0859 -0.6507 0
M  V30 38 C 0.3740 10.3890 -0.8150 0
M  V30 39 C -0.5637 9.4142 -0.6355 0
M  V30 40 N -0.2289 8.1518 -0.2704 0
M  V30 41 C 1.0405 7.8237 -0.1315 0
M  V30 42 C 2.0853 8.7394 -0.3307 0
M  V30 43 H 5.4699 9.0914 -0.2710 0
M  V30 44 H 4.8566 11.4199 -0.7483 0
M  V30 45 H 2.4951 12.0636 -1.0379 0
M  V30 46 H 0.0825 11.3916 -1.0841 0
M  V30 47 H -1.6254 9.6086 -0.7769 0
M  V30 48 H 1.2632 6.7993 0.1588 0
M  V30 49 C 2.2484 -0.5685 5.4975 0
M  V30 50 C 2.6853 -1.6966 5.5106 0
M  V30 51 C 3.2309 -2.9939 5.4711 0
M  V30 52 C 4.0540 -3.4565 6.4829 0
M  V30 53 C 4.6448 -4.7234 6.4093 0
M  V30 54 C 4.4417 -5.5358 5.3236 0
M  V30 55 C 3.6013 -5.1051 4.2747 0
M  V30 56 C 3.3847 -5.8726 3.1143 0
M  V30 57 N 2.5967 -5.4756 2.1374 0
M  V30 58 C 1.9209 -4.3038 2.2432 0
M  V30 59 C 2.0843 -3.4711 3.3130 0
M  V30 60 C 2.9630 -3.8346 4.3537 0
M  V30 61 H 4.2495 -2.8258 7.3368 0
M  V30 62 H 5.2790 -5.0512 7.2185 0
M  V30 63 H 4.9161 -6.5021 5.2617 0
M  V30 64 H 3.8819 -6.8320 2.9920 0
M  V30 65 H 1.2418 -4.0763 1.4245 0
M  V30 66 H 1.5529 -2.5351 3.3765 0
M  V30 67 C 1.7285 0.7395 5.4541 0
M  V30 68 C 1.5546 1.4761 6.6311 0
M  V30 69 C 1.0240 2.7462 6.5800 0
M  V30 70 C 0.6607 3.3102 5.3505 0
M  V30 71 C 0.8550 2.5804 4.1722 0
M  V30 72 C 1.3792 1.3087 4.2234 0
M  V30 73 H 1.8300 1.0399 7.5798 0
M  V30 74 H 0.8800 3.3118 7.4885 0
M  V30 75 H 0.5872 3.0217 3.2258 0
M  V30 76 H 1.5275 0.7411 3.3185 0
M  V30 77 C 0.0732 4.5889 5.3195 0
M  V30 78 C -0.4705 5.6704 5.3070 0
M  V30 79 C -1.1566 6.8955 5.3832 0
M  V30 80 C -1.3620 7.4896 6.6167 0
M  V30 81 C -2.0978 8.6724 6.7349 0
M  V30 82 C -2.6558 9.2710 5.6323 0
M  V30 83 C -2.4686 8.7074 4.3575 0
M  V30 84 C -3.0304 9.2616 3.1850 0
M  V30 85 C -2.7976 8.6731 1.9763 0
M  V30 86 N -2.0129 7.5746 1.8501 0
M  V30 87 C -1.4878 7.0159 2.9227 0
M  V30 88 C -1.6924 7.5200 4.2164 0
M  V30 89 H -0.9538 7.0254 7.5014 0
M  V30 90 H -2.2359 9.1075 7.7129 0
M  V30 91 H -3.2407 10.1720 5.7297 0
M  V30 92 H -3.6428 10.1460 3.2589 0
M  V30 93 H -3.2332 9.0608 1.0572 0
M  V30 94 H -0.8680 6.1341 2.7742 0
M  V30 95 C -5.1466 -0.0247 -0.3211 0
M  V30 96 C -5.5296 1.1201 -0.4010 0
M  V30 97 C -5.9291 2.4626 -0.5429 0
M  V30 98 C -7.1897 2.7898 -1.0108 0
M  V30 99 C -7.5610 4.1246 -1.2097 0
M  V30 100 C -6.6802 5.1469 -0.9660 0
M  V30 101 C -5.3880 4.8562 -0.4788 0
M  V30 102 C -4.4233 5.8553 -0.2478 0
M  V30 103 N -3.2194 5.5871 0.2124 0
M  V30 104 C -2.8802 4.3109 0.5243 0
M  V30 105 C -3.7314 3.2652 0.3090 0
M  V30 106 C -5.0094 3.5052 -0.2352 0
M  V30 107 H -7.8931 2.0019 -1.2337 0
M  V30 108 H -8.5536 4.3416 -1.5734 0
M  V30 109 H -6.9638 6.1725 -1.1411 0
M  V30 110 H -4.6538 6.8974 -0.4565 0
M  V30 111 H -1.8914 4.1794 0.9582 0
M  V30 112 H -3.4426 2.2540 0.5469 0
M  V30 113 C -4.6728 -1.3471 -0.2207 0
M  V30 114 C -3.2961 -1.5982 -0.2679 0
M  V30 115 C -2.8226 -2.8856 -0.1538 0
M  V30 116 C -3.7135 -3.9513 0.0178 0
M  V30 117 C -5.0912 -3.7014 0.0500 0
M  V30 118 C -5.5659 -2.4139 -0.0709 0
M  V30 119 H -2.6134 -0.7735 -0.3968 0
M  V30 120 H -1.7634 -3.0820 -0.1919 0
M  V30 121 H -5.7789 -4.5242 0.1756 0
M  V30 122 H -6.6281 -2.2212 -0.0409 0
M  V30 123 C -3.2420 -5.2659 0.1930 0
M  V30 124 C -2.8451 -6.3929 0.3875 0
M  V30 125 C -2.4634 -7.7123 0.6893 0
M  V30 126 C -3.4355 -8.6709 0.9186 0
M  V30 127 C -3.0911 -9.9748 1.2868 0
M  V30 128 C -1.7774 -10.3393 1.4510 0
M  V30 129 C -0.7549 -9.4011 1.2230 0
M  V30 130 C 0.6151 -9.7050 1.3918 0
M  V30 131 C 1.5585 -8.7523 1.1392 0
M  V30 132 N 1.2295 -7.5129 0.6992 0
M  V30 133 C -0.0385 -7.1842 0.5491 0
M  V30 134 C -1.0886 -8.0769 0.8141 0
M  V30 135 H -4.4761 -8.4026 0.8193 0
M  V30 136 H -3.8761 -10.6959 1.4557 0
M  V30 137 H -1.5162 -11.3404 1.7556 0
M  V30 138 H 0.9014 -10.6905 1.7232 0
M  V30 139 H 2.6203 -8.9461 1.2807 0
M  V30 140 H -0.2558 -6.1779 0.1974 0
M  V30 141 C -0.9781 1.2654 -5.2124 0
M  V30 142 C -1.4007 2.3989 -5.2375 0
M  V30 143 C -1.9353 3.7005 -5.2134 0
M  V30 144 C -2.6907 4.1841 -6.2678 0
M  V30 145 C -3.2707 5.4566 -6.2152 0
M  V30 146 C -3.1275 6.2535 -5.1082 0
M  V30 147 C -2.3613 5.7995 -4.0136 0
M  V30 148 C -2.2154 6.5474 -2.8296 0
M  V30 149 N -1.5006 6.1260 -1.8078 0
M  V30 150 C -0.8325 4.9473 -1.8854 0
M  V30 151 C -0.9308 4.1335 -2.9772 0
M  V30 152 C -1.7316 4.5236 -4.0697 0
M  V30 153 H -2.8385 3.5665 -7.1407 0
M  V30 154 H -3.8491 5.8019 -7.0583 0
M  V30 155 H -3.5943 7.2245 -5.0639 0
M  V30 156 H -2.7087 7.5106 -2.7256 0
M  V30 157 H -0.2188 4.6978 -1.0220 0
M  V30 158 H -0.4099 3.1905 -3.0195 0
M  V30 159 C -0.4916 -0.0546 -5.1610 0
M  V30 160 C 0.1615 -0.5153 -4.0113 0
M  V30 161 C 0.6318 -1.8075 -3.9526 0
M  V30 162 C 0.4642 -2.6687 -5.0432 0
M  V30 163 C -0.1898 -2.2086 -6.1927 0
M  V30 164 C -0.6638 -0.9166 -6.2504 0
M  V30 165 H 0.2958 0.1526 -3.1752 0
M  V30 166 H 1.1445 -2.1624 -3.0731 0
M  V30 167 H -0.3182 -2.8728 -7.0343 0
M  V30 168 H -1.1666 -0.5615 -7.1374 0
M  V30 169 C 0.9743 -3.9800 -5.0046 0
M  V30 170 C 1.4389 -5.0975 -4.9791 0
M  V30 171 C 2.0376 -6.3686 -5.0390 0
M  V30 172 C 2.1689 -7.0091 -6.2590 0
M  V30 173 C 2.8262 -8.2388 -6.3611 0
M  V30 174 C 3.3782 -8.8392 -5.2564 0
M  V30 175 C 3.2604 -8.2306 -3.9942 0
M  V30 176 C 3.8183 -8.7858 -2.8201 0
M  V30 177 C 3.6490 -8.1539 -1.6228 0
M  V30 178 N 2.9289 -7.0105 -1.5078 0
M  V30 179 C 2.4136 -6.4486 -2.5835 0
M  V30 180 C 2.5617 -6.9947 -3.8679 0
M  V30 181 H 1.7672 -6.5441 -7.1462 0
M  V30 182 H 2.9094 -8.7092 -7.3290 0
M  V30 183 H 3.9050 -9.7766 -5.3429 0
M  V30 184 H 4.3768 -9.7060 -2.8837 0
M  V30 185 H 4.0850 -8.5422 -0.7042 0
M  V30 186 H 1.8468 -5.5304 -2.4452 0
M  V30 END ATOM
M  V30 BEGIN BOND
M  V30 1 3 3 4
M  V30 2 1 4 5
M  V30 3 2 5 6
M  V30 4 1 6 7
M  V30 5 2 7 8
M  V30 6 1 8 9
M  V30 7 2 9 10
M  V30 8 1 10 11
M  V30 9 2 11 12
M  V30 10 1 12 13
M  V30 11 2 13 14
M  V30 12 1 14 5
M  V30 13 1 14 9
M  V30 14 1 6 15
M  V30 15 1 7 16
M  V30 16 1 8 17
M  V30 17 1 10 18
M  V30 18 1 12 19
M  V30 19 1 13 20
M  V30 20 2 21 22
M  V30 21 1 22 23
M  V30 22 2 23 24
M  V30 23 1 24 25
M  V30 24 2 25 26
M  V30 25 1 26 21
M  V30 26 1 22 27
M  V30 27 1 23 28
M  V30 28 1 25 29
M  V30 29 1 26 30
M  V30 30 3 31 32
M  V30 31 1 32 33
M  V30 32 2 33 34
M  V30 33 1 34 35
M  V30 34 2 35 36
M  V30 35 1 36 37
M  V30 36 2 37 38
M  V30 37 1 38 39
M  V30 38 2 39 40
M  V30 39 1 40 41
M  V30 40 2 41 42
M  V30 41 1 42 33
M  V30 42 1 42 37
M  V30 43 1 34 43
M  V30 44 1 35 44
M  V30 45 1 36 45
M  V30 46 1 38 46
M  V30 47 1 39 47
M  V30 48 1 41 48
M  V30 49 1 3 21
M  V30 50 1 24 31
M  V30 51 3 49 50
M  V30 52 1 50 51
M  V30 53 2 51 52
M  V30 54 1 52 53
M  V30 55 2 53 54
M  V30 56 1 54 55
M  V30 57 2 55 56
M  V30 58 1 56 57
M  V30 59 2 57 58
M  V30 60 1 58 59
M  V30 61 2 59 60
M  V30 62 1 60 51
M  V30 63 1 60 55
M  V30 64 1 52 61
M  V30 65 1 53 62
M  V30 66 1 54 63
M  V30 67 1 56 64
M  V30 68 1 58 65
M  V30 69 1 59 66
M  V30 70 2 67 68
M  V30 71 1 68 69
M  V30 72 2 69 70
M  V30 73 1 70 71
M  V30 74 2 71 72
M  V30 75 1 72 67
M  V30 76 1 68 73
M  V30 77 1 69 74
M  V30 78 1 71 75
M  V30 79 1 72 76
M  V30 80 3 77 78
M  V30 81 1 78 79
M  V30 82 2 79 80
M  V30 83 1 80 81
M  V30 84 2 81 82
M  V30 85 1 82 83
M  V30 86 2 83 84
M  V30 87 1 84 85
M  V30 88 2 85 86
M  V30 89 1 86 87
M  V30 90 2 87 88
M  V30 91 1 88 79
M  V30 92 1 88 83
M  V30 93 1 80 89
M  V30 94 1 81 90
M  V30 95 1 82 91
M  V30 96 1 84 92
M  V30 97 1 85 93
M  V30 98 1 87 94
M  V30 99 1 49 67
M  V30 100 1 70 77
M  V30 101 3 95 96
M  V30 102 1 96 97
M  V30 103 2 97 98
M  V30 104 1 98 99
M  V30 105 2 99 100
M  V30 106 1 100 101
M  V30 107 2 101 102
M  V30 108 1 102 103
M  V30 109 2 103 104
M  V30 110 1 104 105
M  V30 111 2 105 106
M  V30 112 1 106 97
M  V30 113 1 106 101
M  V30 114 1 98 107
M  V30 115 1 99 108
M  V30 116 1 100 109
M  V30 117 1 102 110
M  V30 118 1 104 111
M  V30 119 1 105 112
M  V30 120 2 113 114
M  V30 121 1 114 115
M  V30 122 2 115 116
M  V30 123 1 116 117
M  V30 124 2 117 118
M  V30 125 1 118 113
M  V30 126 1 114 119
M  V30 127 1 115 120
M  V30 128 1 117 121
M  V30 129 1 118 122
M  V30 130 3 123 124
M  V30 131 1 124 125
M  V30 132 2 125 126
M  V30 133 1 126 127
M  V30 134 2 127 128
M  V30 135 1 128 129
M  V30 136 2 129 130
M  V30 137 1 130 131
M  V30 138 2 131 132
M  V30 139 1 132 133
M  V30 140 2 133 134
M  V30 141 1 134 125
M  V30 142 1 134 129
M  V30 143 1 126 135
M  V30 144 1 127 136
M  V30 145 1 128 137
M  V30 146 1 130 138
M  V30 147 1 131 139
M  V30 148 1 133 140
M  V30 149 1 95 113
M  V30 150 1 116 123
M  V30 151 3 141 142
M  V30 152 1 142 143
M  V30 153 2 143 144
M  V30 154 1 144 145
M  V30 155 2 145 146
M  V30 156 1 146 147
M  V30 157 2 147 148
M  V30 158 1 148 149
M  V30 159 2 149 150
M  V30 160 1 150 151
M  V30 161 2 151 152
M  V30 162 1 152 143
M  V30 163 1 152 147
M  V30 164 1 144 153
M  V30 165 1 145 154
M  V30 166 1 146 155
M  V30 167 1 148 156
M  V30 168 1 150 157
M  V30 169 1 151 158
M  V30 170 2 159 160
M  V30 171 1 160 161
M  V30 172 2 161 162
M  V30 173 1 162 163
M  V30 174 2 163 164
M  V30 175 1 164 159
M  V30 176 1 160 165
M  V30 177 1 161 166
M  V30 178 1 163 167
M  V30 179 1 164 168
M  V30 180 3 169 170
M  V30 181 1 170 171
M  V30 182 2 171 172
M  V30 183 1 172 173
M  V30 184 2 173 174
M  V30 185 1 174 175
M  V30 186 2 175 176
M  V30 187 1 176 177
M  V30 188 2 177 178
M  V30 189 1 178 179
M  V30 190 2 179 180
M  V30 191 1 180 171
M  V30 192 1 180 175
M  V30 193 1 172 181
M  V30 194 1 173 182
M  V30 195 1 174 183
M  V30 196 1 176 184
M  V30 197 1 177 185
M  V30 198 1 179 186
M  V30 199 1 141 159
M  V30 200 1 162 169
M  V30 201 9 40 1
M  V30 202 9 86 1
M  V30 203 9 103 1
M  V30 204 9 149 1
M  V30 205 9 11 2
M  V30 206 9 57 2
M  V30 207 9 132 2
M  V30 208 9 178 2
M  V30 END BOND
M  V30 END CTAB
M  END

$$$$
