
     RDKit          3D

  0  0  0  0  0  0  0  0  0  0999 V3000
M  V30 BEGIN CTAB
M  V30 COUNTS 186 208 0 0 0
M  V30 BEGIN ATOM
M  V30 1 Pd 5.5455 -3.4264 -2.6421 0 CHG=2
M  V30 2 Pd -5.7356 3.0622 2.1964 0 CHG=2
M  V30 3 C 0.1669 -0.7213 5.4053 0
M  V30 4 C -0.7952 -0.1263 5.8343 0
M  V30 5 C -1.8946 0.6213 6.2959 0
M  V30 6 C -2.0000 0.9937 7.6250 0
M  V30 7 C -3.0635 1.7874 8.0694 0
M  V30 8 C -4.0207 2.2393 7.1972 0
M  V30 9 C -3.9522 1.8785 5.8347 0
M  V30 10 C -4.8746 2.3478 4.8799 0
M  V30 11 N -4.8127 2.0121 3.6087 0
M  V30 12 C -3.8584 1.1479 3.1795 0
M  V30 13 C -2.8994 0.6579 4.0186 0
M  V30 14 C -2.8981 1.0381 5.3760 0
M  V30 15 H -1.2462 0.6708 8.3270 0
M  V30 16 H -3.1153 2.0538 9.1138 0
M  V30 17 H -4.8264 2.8683 7.5405 0
M  V30 18 H -5.6745 3.0220 5.1759 0
M  V30 19 H -3.9103 0.8764 2.1269 0
M  V30 20 H -2.1352 -0.0134 3.6617 0
M  V30 21 C 1.2853 -1.4014 4.8871 0
M  V30 22 C 2.3073 -1.8371 5.7385 0
M  V30 23 C 3.4014 -2.4981 5.2254 0
M  V30 24 C 3.4996 -2.7355 3.8489 0
M  V30 25 C 2.4796 -2.2950 2.9977 0
M  V30 26 C 1.3844 -1.6378 3.5105 0
M  V30 27 H 2.2309 -1.6558 6.8002 0
M  V30 28 H 4.1881 -2.8387 5.8820 0
M  V30 29 H 2.5543 -2.4881 1.9396 0
M  V30 30 H 0.5935 -1.3038 2.8579 0
M  V30 31 C 4.6050 -3.4402 3.3363 0
M  V30 32 C 5.5398 -4.0706 2.8957 0
M  V30 33 C 6.5968 -4.8851 2.4520 0
M  V30 34 C 7.3463 -5.5990 3.3710 0
M  V30 35 C 8.3540 -6.4744 2.9557 0
M  V30 36 C 8.6180 -6.6668 1.6220 0
M  V30 37 C 7.8894 -5.9551 0.6523 0
M  V30 38 C 8.0987 -6.1171 -0.7361 0
M  V30 39 C 7.3710 -5.3793 -1.6236 0
M  V30 40 N 6.4605 -4.4595 -1.2189 0
M  V30 41 C 6.2190 -4.2968 0.0670 0
M  V30 42 C 6.8833 -5.0319 1.0610 0
M  V30 43 H 7.1395 -5.4855 4.4243 0
M  V30 44 H 8.9184 -7.0144 3.7006 0
M  V30 45 H 9.3804 -7.3607 1.3044 0
M  V30 46 H 8.8330 -6.8273 -1.0810 0
M  V30 47 H 7.4912 -5.4964 -2.6991 0
M  V30 48 H 5.4781 -3.5507 0.3461 0
M  V30 49 C 1.8111 4.6599 2.0478 0
M  V30 50 C 0.8355 5.2002 2.5168 0
M  V30 51 C -0.3150 5.7706 3.0940 0
M  V30 52 C -0.2198 6.7925 4.0225 0
M  V30 53 C -1.3623 7.3140 4.6404 0
M  V30 54 C -2.6081 6.8145 4.3592 0
M  V30 55 C -2.7491 5.7788 3.4111 0
M  V30 56 C -3.9935 5.1940 3.1082 0
M  V30 57 N -4.1285 4.2319 2.2198 0
M  V30 58 C -3.0495 3.7943 1.5231 0
M  V30 59 C -1.7935 4.2736 1.7626 0
M  V30 60 C -1.5996 5.2647 2.7462 0
M  V30 61 H 0.7520 7.1860 4.2794 0
M  V30 62 H -1.2493 8.1122 5.3577 0
M  V30 63 H -3.4830 7.2051 4.8538 0
M  V30 64 H -4.8938 5.5270 3.6193 0
M  V30 65 H -3.2527 3.0431 0.7631 0
M  V30 66 H -0.9425 3.9053 1.2124 0
M  V30 67 C 2.9283 4.0104 1.4880 0
M  V30 68 C 4.1635 4.6628 1.4050 0
M  V30 69 C 5.2443 4.0270 0.8348 0
M  V30 70 C 5.1156 2.7230 0.3404 0
M  V30 71 C 3.8852 2.0640 0.4436 0
M  V30 72 C 2.8032 2.7014 1.0072 0
M  V30 73 H 4.2620 5.6701 1.7815 0
M  V30 74 H 6.1953 4.5330 0.7611 0
M  V30 75 H 3.7921 1.0554 0.0745 0
M  V30 76 H 1.8521 2.1989 1.0857 0
M  V30 77 C 6.2154 2.1056 -0.2846 0
M  V30 78 C 7.1536 1.5996 -0.8584 0
M  V30 79 C 8.2637 1.1107 -1.5698 0
M  V30 80 C 9.4054 1.8867 -1.6748 0
M  V30 81 C 10.5015 1.4601 -2.4304 0
M  V30 82 C 10.4714 0.2660 -3.1076 0
M  V30 83 C 9.3355 -0.5591 -3.0256 0
M  V30 84 C 9.2318 -1.7903 -3.7118 0
M  V30 85 C 8.1069 -2.5505 -3.5774 0
M  V30 86 N 7.0783 -2.1780 -2.7763 0
M  V30 87 C 7.1282 -1.0267 -2.1359 0
M  V30 88 C 8.2229 -0.1537 -2.2318 0
M  V30 89 H 9.4443 2.8405 -1.1712 0
M  V30 90 H 11.3752 2.0910 -2.4879 0
M  V30 91 H 11.3107 -0.0505 -3.7067 0
M  V30 92 H 10.0454 -2.1158 -4.3401 0
M  V30 93 H 7.9852 -3.4923 -4.1093 0
M  V30 94 H 6.2789 -0.7671 -1.5074 0
M  V30 95 C -0.4995 0.1118 -5.8777 0
M  V30 96 C 0.4555 -0.4994 -6.3000 0
M  V30 97 C 1.5496 -1.2623 -6.7502 0
M  V30 98 C 1.6234 -1.7072 -8.0585 0
M  V30 99 C 2.6815 -2.5178 -8.4860 0
M  V30 100 C 3.6659 -2.9117 -7.6164 0
M  V30 101 C 3.6326 -2.4715 -6.2758 0
M  V30 102 C 4.5887 -2.8726 -5.3233 0
M  V30 103 N 4.5631 -2.4586 -4.0739 0
M  V30 104 C 3.6136 -1.5778 -3.6694 0
M  V30 105 C 2.6228 -1.1507 -4.5062 0
M  V30 106 C 2.5831 -1.6152 -5.8365 0
M  V30 107 H 0.8475 -1.4314 -8.7565 0
M  V30 108 H 2.7068 -2.8436 -9.5144 0
M  V30 109 H 4.4674 -3.5536 -7.9451 0
M  V30 110 H 5.3862 -3.5569 -5.6029 0
M  V30 111 H 3.6975 -1.2348 -2.6406 0
M  V30 112 H 1.8653 -0.4626 -4.1667 0
M  V30 113 C -1.5991 0.8218 -5.3581 0
M  V30 114 C -1.8709 0.7758 -3.9853 0
M  V30 115 C -2.9334 1.4798 -3.4656 0
M  V30 116 C -3.7445 2.2524 -4.3046 0
M  V30 117 C -3.4812 2.2862 -5.6799 0
M  V30 118 C -2.4220 1.5766 -6.2014 0
M  V30 119 H -1.2411 0.1818 -3.3423 0
M  V30 120 H -3.1461 1.4444 -2.4095 0
M  V30 121 H -4.1111 2.8769 -6.3282 0
M  V30 122 H -2.2166 1.6071 -7.2611 0
M  V30 123 C -4.7994 3.0227 -3.7804 0
M  V30 124 C -5.6812 3.7218 -3.3340 0
M  V30 125 C -6.6741 4.6117 -2.8870 0
M  V30 126 C -7.3618 5.3873 -3.8045 0
M  V30 127 C -8.3069 6.3299 -3.3887 0
M  V30 128 C -8.5677 6.5284 -2.0553 0
M  V30 129 C -7.8982 5.7594 -1.0869 0
M  V30 130 C -8.1060 5.9258 0.3012 0
M  V30 131 C -7.4344 5.1359 1.1881 0
M  V30 132 N -6.5816 4.1630 0.7827 0
M  V30 133 C -6.3455 3.9903 -0.5028 0
M  V30 134 C -6.9565 4.7707 -1.4965 0
M  V30 135 H -7.1571 5.2668 -4.8573 0
M  V30 136 H -8.8248 6.9155 -4.1328 0
M  V30 137 H -9.2822 7.2713 -1.7372 0
M  V30 138 H -8.7938 6.6811 0.6463 0
M  V30 139 H -7.5541 5.2529 2.2638 0
M  V30 140 H -5.6515 3.2002 -0.7818 0
M  V30 141 C -1.9613 -5.1348 -2.2308 0
M  V30 142 C -0.9876 -5.6895 -2.6869 0
M  V30 143 C 0.1586 -6.2764 -3.2547 0
M  V30 144 C 0.0583 -7.3520 -4.1204 0
M  V30 145 C 1.1950 -7.8953 -4.7299 0
M  V30 146 C 2.4393 -7.3642 -4.5059 0
M  V30 147 C 2.5852 -6.2702 -3.6265 0
M  V30 148 C 3.8263 -5.6484 -3.3910 0
M  V30 149 N 3.9646 -4.6284 -2.5706 0
M  V30 150 C 2.8942 -4.1624 -1.8787 0
M  V30 151 C 1.6418 -4.6764 -2.0560 0
M  V30 152 C 1.4428 -5.7329 -2.9678 0
M  V30 153 H -0.9129 -7.7730 -4.3320 0
M  V30 154 H 1.0785 -8.7369 -5.3954 0
M  V30 155 H 3.3094 -7.7729 -4.9945 0
M  V30 156 H 4.7205 -5.9994 -3.9002 0
M  V30 157 H 3.1027 -3.3554 -1.1789 0
M  V30 158 H 0.7958 -4.2854 -1.5141 0
M  V30 159 C -3.0841 -4.4694 -1.7032 0
M  V30 160 C -2.9135 -3.3139 -0.9310 0
M  V30 161 C -4.0081 -2.6546 -0.4195 0
M  V30 162 C -5.2991 -3.1369 -0.6644 0
M  V30 163 C -5.4701 -4.2918 -1.4375 0
M  V30 164 C -4.3750 -4.9497 -1.9525 0
M  V30 165 H -1.9174 -2.9486 -0.7377 0
M  V30 166 H -3.8801 -1.7707 0.1843 0
M  V30 167 H -6.4661 -4.6642 -1.6255 0
M  V30 168 H -4.5069 -5.8412 -2.5472 0
M  V30 169 C -6.4214 -2.4890 -0.1148 0
M  V30 170 C -7.3821 -1.9461 0.3826 0
M  V30 171 C -8.5216 -1.4115 1.0100 0
M  V30 172 C -9.6948 -2.1452 1.0438 0
M  V30 173 C -10.8213 -1.6734 1.7242 0
M  V30 174 C -10.7916 -0.4760 2.3957 0
M  V30 175 C -9.6248 0.3088 2.3802 0
M  V30 176 C -9.5212 1.5421 3.0628 0
M  V30 177 C -8.3660 2.2645 2.9892 0
M  V30 178 N -7.3059 1.8534 2.2501 0
M  V30 179 C -7.3549 0.6969 1.6190 0
M  V30 180 C -8.4797 -0.1415 1.6607 0
M  V30 181 H -9.7345 -3.1022 0.5465 0
M  V30 182 H -11.7191 -2.2726 1.7291 0
M  V30 183 H -11.6554 -0.1263 2.9391 0
M  V30 184 H -10.3592 1.8997 3.6395 0
M  V30 185 H -8.2451 3.2062 3.5214 0
M  V30 186 H -6.4806 0.4051 1.0412 0
M  V30 END ATOM
M  V30 BEGIN BOND
M  V30 1 3 3 4
M  V30 2 1 4 5
M  V30 3 2 5 6
M  V30 4 1 6 7
M  V30 5 2 7 8
M  V30 6 1 8 9
M  V30 7 2 9 10
M  V30 8 1 10 11
M  V30 9 2 11 12
M  V30 10 1 12 13
M  V30 11 2 13 14
M  V30 12 1 14 5
M  V30 13 1 14 9
M  V30 14 1 6 15
M  V30 15 1 7 16
M  V30 16 1 8 17
M  V30 17 1 10 18
M  V30 18 1 12 19
M  V30 19 1 13 20
M  V30 20 2 21 22
M  V30 21 1 22 23
M  V30 22 2 23 24
M  V30 23 1 24 25
M  V30 24 2 25 26
M  V30 25 1 26 21
M  V30 26 1 22 27
M  V30 27 1 23 28
M  V30 28 1 25 29
M  V30 29 1 26 30
M  V30 30 3 31 32
M  V30 31 1 32 33
M  V30 32 2 33 34
M  V30 33 1 34 35
M  V30 34 2 35 36
M  V30 35 1 36 37
M  V30 36 2 37 38
M  V30 37 1 38 39
M  V30 38 2 39 40
M  V30 39 1 40 41
M  V30 40 2 41 42
M  V30 41 1 42 33
M  V30 42 1 42 37
M  V30 43 1 34 43
M  V30 44 1 35 44
M  V30 45 1 36 45
M  V30 46 1 38 46
M  V30 47 1 39 47
M  V30 48 1 41 48
M  V30 49 1 3 21
M  V30 50 1 24 31
M  V30 51 3 49 50
M  V30 52 1 50 51
M  V30 53 2 51 52
M  V30 54 1 52 53
M  V30 55 2 53 54
M  V30 56 1 54 55
M  V30 57 2 55 56
M  V30 58 1 56 57
M  V30 59 2 57 58
M  V30 60 1 58 59
M  V30 61 2 59 60
M  V30 62 1 60 51
M  V30 63 1 60 55
M  V30 64 1 52 61
M  V30 65 1 53 62
M  V30 66 1 54 63
M  V30 67 1 56 64
M  V30 68 1 58 65
M  V30 69 1 59 66
M  V30 70 2 67 68
M  V30 71 1 68 69
M  V30 72 2 69 70
M  V30 73 1 70 71
M  V30 74 2 71 72
M  V30 75 1 72 67
M  V30 76 1 68 73
M  V30 77 1 69 74
M  V30 78 1 71 75
M  V30 79 1 72 76
M  V30 80 3 77 78
M  V30 81 1 78 79
M  V30 82 2 79 80
M  V30 83 1 80 81
M  V30 84 2 81 82
M  V30 85 1 82 83
M  V30 86 2 83 84
M  V30 87 1 84 85
M  V30 88 2 85 86
M  V30 89 1 86 87
M  V30 90 2 87 88
M  V30 91 1 88 79
M  V30 92 1 88 83
M  V30 93 1 80 89
M  V30 94 1 81 90
M  V30 95 1 82 91
M  V30 96 1 84 92
M  V30 97 1 85 93
M  V30 98 1 87 94
M  V30 99 1 49 67
M  V30 100 1 70 77
M  V30 101 3 95 96
M  V30 102 1 96 97
M  V30 103 2 97 98
M  V30 104 1 98 99
M  V30 105 2 99 100
M  V30 106 1 100 101
M  V30 107 2 101 102
M  V30 108 1 102 103
M  V30 109 2 103 104
M  V30 110 1 104 105
M  V30 111 2 105 106
M  V30 112 1 106 97
M  V30 113 1 106 101
M  V30 114 1 98 107
M  V30 115 1 99 108
M  V30 116 1 100 109
M  V30 117 1 102 110
M  V30 118 1 104 111
M  V30 119 1 105 112
M  V30 120 2 113 114
M  V30 121 1 114 115
M  V30 122 2 115 116
M  V30 123 1 116 117
M  V30 124 2 117 118
M  V30 125 1 118 113
M  V30 126 1 114 119
M  V30 127 1 115 120
M  V30 128 1 117 121
M  V30 129 1 118 122
M  V30 130 3 123 124
M  V30 131 1 124 125
M  V30 132 2 125 126
M  V30 133 1 126 127
M  V30 134 2 127 128
M  V30 135 1 128 129
M  V30 136 2 129 130
M  V30 137 1 130 131
M  V30 138 2 131 132
M  V30 139 1 132 133
M  V30 140 2 133 134
M  V30 141 1 134 125
M  V30 142 1 134 129
M  V30 143 1 126 135
M  V30 144 1 127 136
M  V30 145 1 128 137
M  V30 146 1 130 138
M  V30 147 1 131 139
M  V30 148 1 133 140
M  V30 149 1 95 113
M  V30 150 1 116 123
M  V30 151 3 141 142
M  V30 152 1 142 143
M  V30 153 2 143 144
M  V30 154 1 144 145
M  V30 155 2 145 146
M  V30 156 1 146 147
M  V30 157 2 147 148
M  V30 158 1 148 149
M  V30 159 2 149 150
M  V30 160 1 150 151
M  V30 161 2 151 152
M  V30 162 1 152 143
M  V30 163 1 152 147
M  V30 164 1 144 153
M  V30 165 1 145 154
M  V30 166 1 146 155
M  V30 167 1 148 156
M  V30 168 1 150 157
M  V30 169 1 151 158
M  V30 170 2 159 160
M  V30 171 1 160 161
M  V30 172 2 161 162
M  V30 173 1 162 163
M  V30 174 2 163 164
M  V30 175 1 164 159
M  V30 176 1 160 165
M  V30 177 1 161 166
M  V30 178 1 163 167
M  V30 179 1 164 168
M  V30 180 3 169 170
M  V30 181 1 170 171
M  V30 182 2 171 172
M  V30 183 1 172 173
M  V30 184 2 173 174
M  V30 185 1 174 175
M  V30 186 2 175 176
M  V30 187 1 176 177
M  V30 188 2 177 178
M  V30 189 1 178 179
M  V30 190 2 179 180
M  V30 191 1 180 171
M  V30 192 1 180 175
M  V30 193 1 172 181
M  V30 194 1 173 182
M  V30 195 1 174 183
M  V30 196 1 176 184
M  V30 197 1 177 185
M  V30 198 1 179 186
M  V30 199 1 141 159
M  V30 200 1 162 169
M  V30 201 9 40 1
M  V30 202 9 86 1
M  V30 203 9 103 1
M  V30 204 9 149 1
M  V30 205 9 11 2
M  V30 206 9 57 2
M  V30 207 9 132 2
M  V30 208 9 178 2
M  V30 END BOND
M  V30 END CTAB
M  END

$$$$
