
     RDKit          3D

  0  0  0  0  0  0  0  0  0  0999 V3000
M  V30 BEGIN CTAB
M  V30 COUNTS 186 208 0 0 0
M  V30 BEGIN ATOM
M  V30 1 Pd 1.6231 -6.9142 0.6591 0 CHG=2
M  V30 2 Pd -1.4904 6.4808 -1.2538 0 CHG=2
M  V30 3 C 4.9140 2.5814 0.5431 0
M  V30 4 C 4.6564 3.7462 0.3421 0
M  V30 5 C 4.3295 5.0828 0.0468 0
M  V30 6 C 5.3154 6.0307 -0.1671 0
M  V30 7 C 4.9880 7.3451 -0.5191 0
M  V30 8 C 3.6814 7.7276 -0.6853 0
M  V30 9 C 2.6461 6.7928 -0.4723 0
M  V30 10 C 1.2884 7.1078 -0.6727 0
M  V30 11 N 0.3212 6.2374 -0.4742 0
M  V30 12 C 0.6101 4.9924 -0.0181 0
M  V30 13 C 1.8956 4.5776 0.1807 0
M  V30 14 C 2.9627 5.4626 -0.0743 0
M  V30 15 H 6.3525 5.7485 -0.0661 0
M  V30 16 H 5.7834 8.0579 -0.6730 0
M  V30 17 H 3.4352 8.7359 -0.9774 0
M  V30 18 H 1.0005 8.0995 -1.0128 0
M  V30 19 H -0.2486 4.3523 0.1751 0
M  V30 20 H 2.1133 3.5798 0.5256 0
M  V30 21 C 5.1959 1.2199 0.7643 0
M  V30 22 C 6.5190 0.7814 0.8919 0
M  V30 23 C 6.7892 -0.5525 1.1039 0
M  V30 24 C 5.7423 -1.4785 1.1899 0
M  V30 25 C 4.4197 -1.0399 1.0573 0
M  V30 26 C 4.1493 0.2936 0.8492 0
M  V30 27 H 7.3264 1.4956 0.8274 0
M  V30 28 H 7.8093 -0.8909 1.2070 0
M  V30 29 H 3.6160 -1.7544 1.1337 0
M  V30 30 H 3.1309 0.6354 0.7540 0
M  V30 31 C 6.0248 -2.8346 1.4392 0
M  V30 32 C 6.2626 -3.9965 1.6817 0
M  V30 33 C 6.5897 -5.3122 2.0554 0
M  V30 34 C 7.8549 -5.5938 2.5411 0
M  V30 35 C 8.1863 -6.8754 2.9908 0
M  V30 36 C 7.2602 -7.8892 2.9819 0
M  V30 37 C 5.9651 -7.6527 2.4874 0
M  V30 38 C 4.9598 -8.6459 2.4643 0
M  V30 39 C 3.7294 -8.3555 1.9512 0
M  V30 40 N 3.4370 -7.1399 1.4263 0
M  V30 41 C 4.3401 -6.1796 1.4518 0
M  V30 42 C 5.6229 -6.3609 1.9919 0
M  V30 43 H 8.5923 -4.8067 2.5837 0
M  V30 44 H 9.1828 -7.0584 3.3628 0
M  V30 45 H 7.5124 -8.8707 3.3515 0
M  V30 46 H 5.1761 -9.6267 2.8566 0
M  V30 47 H 2.9263 -9.0903 1.9396 0
M  V30 48 H 4.0614 -5.2194 1.0231 0
M  V30 49 C 2.3439 1.1567 -5.3134 0
M  V30 50 C 2.1190 2.3369 -5.4555 0
M  V30 51 C 1.8825 3.7210 -5.5586 0
M  V30 52 C 2.5632 4.4979 -6.4797 0
M  V30 53 C 2.3712 5.8832 -6.5366 0
M  V30 54 C 1.5180 6.5146 -5.6683 0
M  V30 55 C 0.7977 5.7571 -4.7201 0
M  V30 56 C -0.0613 6.3479 -3.7739 0
M  V30 57 N -0.7389 5.6430 -2.8924 0
M  V30 58 C -0.6580 4.2886 -2.8987 0
M  V30 59 C 0.1693 3.6195 -3.7547 0
M  V30 60 C 0.9539 4.3424 -4.6761 0
M  V30 61 H 3.2592 4.0278 -7.1579 0
M  V30 62 H 2.9177 6.4561 -7.2697 0
M  V30 63 H 1.3897 7.5846 -5.7020 0
M  V30 64 H -0.1823 7.4282 -3.7437 0
M  V30 65 H -1.2957 3.7754 -2.1824 0
M  V30 66 H 0.2356 2.5435 -3.7380 0
M  V30 67 C 2.5868 -0.2174 -5.1235 0
M  V30 68 C 3.1140 -0.9970 -6.1591 0
M  V30 69 C 3.3266 -2.3449 -5.9706 0
M  V30 70 C 3.0220 -2.9419 -4.7408 0
M  V30 71 C 2.5148 -2.1567 -3.6992 0
M  V30 72 C 2.2962 -0.8111 -3.8893 0
M  V30 73 H 3.3444 -0.5382 -7.1091 0
M  V30 74 H 3.7240 -2.9494 -6.7722 0
M  V30 75 H 2.2938 -2.6160 -2.7492 0
M  V30 76 H 1.9021 -0.2027 -3.0907 0
M  V30 77 C 3.1974 -4.3293 -4.5801 0
M  V30 78 C 3.3108 -5.5291 -4.4655 0
M  V30 79 C 3.4036 -6.9319 -4.4353 0
M  V30 80 C 3.8448 -7.6131 -5.5568 0
M  V30 81 C 3.8853 -9.0102 -5.5837 0
M  V30 82 C 3.4702 -9.7502 -4.5041 0
M  V30 83 C 3.0199 -9.1020 -3.3401 0
M  V30 84 C 2.5617 -9.8029 -2.2015 0
M  V30 85 C 2.1519 -9.1129 -1.0982 0
M  V30 86 N 2.1933 -7.7589 -1.0400 0
M  V30 87 C 2.5948 -7.0684 -2.0889 0
M  V30 88 C 3.0045 -7.6776 -3.2849 0
M  V30 89 H 4.1539 -7.0543 -6.4270 0
M  V30 90 H 4.2367 -9.5068 -6.4751 0
M  V30 91 H 3.4829 -10.8283 -4.5358 0
M  V30 92 H 2.5374 -10.8807 -2.2183 0
M  V30 93 H 1.7723 -9.6207 -0.2135 0
M  V30 94 H 2.6083 -5.9842 -1.9982 0
M  V30 95 C -4.8495 -2.9995 -0.8616 0
M  V30 96 C -4.5881 -4.1603 -0.6424 0
M  V30 97 C -4.2527 -5.4915 -0.3302 0
M  V30 98 C -5.2294 -6.4267 -0.0360 0
M  V30 99 C -4.8887 -7.7328 0.3350 0
M  V30 100 C -3.5770 -8.1190 0.4373 0
M  V30 101 C -2.5508 -7.1979 0.1364 0
M  V30 102 C -1.1854 -7.5182 0.2612 0
M  V30 103 N -0.2265 -6.6627 -0.0246 0
M  V30 104 C -0.5354 -5.4299 -0.4998 0
M  V30 105 C -1.8281 -5.0097 -0.6287 0
M  V30 106 C -2.8830 -5.8771 -0.2795 0
M  V30 107 H -6.2690 -6.1405 -0.0851 0
M  V30 108 H -5.6777 -8.4354 0.5547 0
M  V30 109 H -3.3193 -9.1200 0.7441 0
M  V30 110 H -0.8839 -8.5020 0.6128 0
M  V30 111 H 0.3119 -4.8048 -0.7726 0
M  V30 112 H -2.0587 -4.0214 -0.9928 0
M  V30 113 C -5.1238 -1.6421 -1.1171 0
M  V30 114 C -4.1381 -0.6765 -0.8789 0
M  V30 115 C -4.3911 0.6509 -1.1414 0
M  V30 116 C -5.6323 1.0432 -1.6554 0
M  V30 117 C -6.6231 0.0788 -1.8794 0
M  V30 118 C -6.3727 -1.2488 -1.6106 0
M  V30 119 H -3.1821 -0.9840 -0.4861 0
M  V30 120 H -3.6348 1.3965 -0.9570 0
M  V30 121 H -7.5831 0.3823 -2.2695 0
M  V30 122 H -7.1353 -1.9925 -1.7883 0
M  V30 123 C -5.8862 2.3885 -1.9823 0
M  V30 124 C -6.0989 3.5352 -2.3067 0
M  V30 125 C -6.3979 4.8279 -2.7727 0
M  V30 126 C -7.6360 5.0830 -3.3370 0
M  V30 127 C -7.9413 6.3385 -3.8708 0
M  V30 128 C -7.0146 7.3518 -3.8687 0
M  V30 129 C -5.7456 7.1413 -3.3005 0
M  V30 130 C -4.7403 8.1346 -3.2822 0
M  V30 131 C -3.5344 7.8700 -2.7013 0
M  V30 132 N -3.2674 6.6810 -2.1070 0
M  V30 133 C -4.1719 5.7218 -2.1214 0
M  V30 134 C -5.4309 5.8771 -2.7219 0
M  V30 135 H -8.3733 4.2956 -3.3721 0
M  V30 136 H -8.9176 6.5012 -4.3012 0
M  V30 137 H -7.2463 8.3127 -4.3004 0
M  V30 138 H -4.9367 9.0945 -3.7325 0
M  V30 139 H -2.7309 8.6044 -2.6898 0
M  V30 140 H -3.9130 4.7834 -1.6356 0
M  V30 141 C -1.9583 -1.5079 4.8289 0
M  V30 142 C -1.7219 -2.6840 4.9861 0
M  V30 143 C -1.4779 -4.0647 5.1068 0
M  V30 144 C -2.1026 -4.8196 6.0847 0
M  V30 145 C -1.9040 -6.2026 6.1647 0
M  V30 146 C -1.1028 -6.8550 5.2628 0
M  V30 147 C -0.4441 -6.1213 4.2532 0
M  V30 148 C 0.3526 -6.7358 3.2683 0
M  V30 149 N 0.9684 -6.0532 2.3263 0
M  V30 150 C 0.8845 -4.6989 2.3028 0
M  V30 151 C 0.1151 -4.0087 3.1947 0
M  V30 152 C -0.6047 -4.7081 4.1846 0
M  V30 153 H -2.7573 -4.3332 6.7919 0
M  V30 154 H -2.4040 -6.7576 6.9435 0
M  V30 155 H -0.9700 -7.9238 5.3156 0
M  V30 156 H 0.4742 -7.8161 3.2573 0
M  V30 157 H 1.4682 -4.2058 1.5277 0
M  V30 158 H 0.0416 -2.9339 3.1544 0
M  V30 159 C -2.2329 -0.1425 4.6235 0
M  V30 160 C -1.6569 0.5316 3.5398 0
M  V30 161 C -1.9284 1.8645 3.3295 0
M  V30 162 C -2.7790 2.5562 4.1997 0
M  V30 163 C -3.3560 1.8820 5.2829 0
M  V30 164 C -3.0873 0.5474 5.4915 0
M  V30 165 H -0.9961 -0.0019 2.8751 0
M  V30 166 H -1.4784 2.3893 2.5024 0
M  V30 167 H -4.0114 2.4162 5.9546 0
M  V30 168 H -3.5310 0.0281 6.3278 0
M  V30 169 C -3.0328 3.9280 4.0123 0
M  V30 170 C -3.2265 5.1137 3.8649 0
M  V30 171 C -3.4108 6.5062 3.7954 0
M  V30 172 C -3.9335 7.1848 4.8826 0
M  V30 173 C -4.0587 8.5772 4.8717 0
M  V30 174 C -3.6490 9.3154 3.7888 0
M  V30 175 C -3.1215 8.6683 2.6571 0
M  V30 176 C -2.6666 9.3678 1.5163 0
M  V30 177 C -2.1850 8.6769 0.4428 0
M  V30 178 N -2.1530 7.3214 0.4148 0
M  V30 179 C -2.5456 6.6338 1.4690 0
M  V30 180 C -3.0211 7.2466 2.6386 0
M  V30 181 H -4.2374 6.6292 5.7565 0
M  V30 182 H -4.4710 9.0727 5.7375 0
M  V30 183 H -3.7255 10.3914 3.7933 0
M  V30 184 H -2.7026 10.4455 1.5072 0
M  V30 185 H -1.8056 9.1854 -0.4416 0
M  V30 186 H -2.4992 5.5489 1.4039 0
M  V30 END ATOM
M  V30 BEGIN BOND
M  V30 1 3 3 4
M  V30 2 1 4 5
M  V30 3 2 5 6
M  V30 4 1 6 7
M  V30 5 2 7 8
M  V30 6 1 8 9
M  V30 7 2 9 10
M  V30 8 1 10 11
M  V30 9 2 11 12
M  V30 10 1 12 13
M  V30 11 2 13 14
M  V30 12 1 14 5
M  V30 13 1 14 9
M  V30 14 1 6 15
M  V30 15 1 7 16
M  V30 16 1 8 17
M  V30 17 1 10 18
M  V30 18 1 12 19
M  V30 19 1 13 20
M  V30 20 2 21 22
M  V30 21 1 22 23
M  V30 22 2 23 24
M  V30 23 1 24 25
M  V30 24 2 25 26
M  V30 25 1 26 21
M  V30 26 1 22 27
M  V30 27 1 23 28
M  V30 28 1 25 29
M  V30 29 1 26 30
M  V30 30 3 31 32
M  V30 31 1 32 33
M  V30 32 2 33 34
M  V30 33 1 34 35
M  V30 34 2 35 36
M  V30 35 1 36 37
M  V30 36 2 37 38
M  V30 37 1 38 39
M  V30 38 2 39 40
M  V30 39 1 40 41
M  V30 40 2 41 42
M  V30 41 1 42 33
M  V30 42 1 42 37
M  V30 43 1 34 43
M  V30 44 1 35 44
M  V30 45 1 36 45
M  V30 46 1 38 46
M  V30 47 1 39 47
M  V30 48 1 41 48
M  V30 49 1 3 21
M  V30 50 1 24 31
M  V30 51 3 49 50
M  V30 52 1 50 51
M  V30 53 2 51 52
M  V30 54 1 52 53
M  V30 55 2 53 54
M  V30 56 1 54 55
M  V30 57 2 55 56
M  V30 58 1 56 57
M  V30 59 2 57 58
M  V30 60 1 58 59
M  V30 61 2 59 60
M  V30 62 1 60 51
M  V30 63 1 60 55
M  V30 64 1 52 61
M  V30 65 1 53 62
M  V30 66 1 54 63
M  V30 67 1 56 64
M  V30 68 1 58 65
M  V30 69 1 59 66
M  V30 70 2 67 68
M  V30 71 1 68 69
M  V30 72 2 69 70
M  V30 73 1 70 71
M  V30 74 2 71 72
M  V30 75 1 72 67
M  V30 76 1 68 73
M  V30 77 1 69 74
M  V30 78 1 71 75
M  V30 79 1 72 76
M  V30 80 3 77 78
M  V30 81 1 78 79
M  V30 82 2 79 80
M  V30 83 1 80 81
M  V30 84 2 81 82
M  V30 85 1 82 83
M  V30 86 2 83 84
M  V30 87 1 84 85
M  V30 88 2 85 86
M  V30 89 1 86 87
M  V30 90 2 87 88
M  V30 91 1 88 79
M  V30 92 1 88 83
M  V30 93 1 80 89
M  V30 94 1 81 90
M  V30 95 1 82 91
M  V30 96 1 84 92
M  V30 97 1 85 93
M  V30 98 1 87 94
M  V30 99 1 49 67
M  V30 100 1 70 77
M  V30 101 3 95 96
M  V30 102 1 96 97
M  V30 103 2 97 98
M  V30 104 1 98 99
M  V30 105 2 99 100
M  V30 106 1 100 101
M  V30 107 2 101 102
M  V30 108 1 102 103
M  V30 109 2 103 104
M  V30 110 1 104 105
M  V30 111 2 105 106
M  V30 112 1 106 97
M  V30 113 1 106 101
M  V30 114 1 98 107
M  V30 115 1 99 108
M  V30 116 1 100 109
M  V30 117 1 102 110
M  V30 118 1 104 111
M  V30 119 1 105 112
M  V30 120 2 113 114
M  V30 121 1 114 115
M  V30 122 2 115 116
M  V30 123 1 116 117
M  V30 124 2 117 118
M  V30 125 1 118 113
M  V30 126 1 114 119
M  V30 127 1 115 120
M  V30 128 1 117 121
M  V30 129 1 118 122
M  V30 130 3 123 124
M  V30 131 1 124 125
M  V30 132 2 125 126
M  V30 133 1 126 127
M  V30 134 2 127 128
M  V30 135 1 128 129
M  V30 136 2 129 130
M  V30 137 1 130 131
M  V30 138 2 131 132
M  V30 139 1 132 133
M  V30 140 2 133 134
M  V30 141 1 134 125
M  V30 142 1 134 129
M  V30 143 1 126 135
M  V30 144 1 127 136
M  V30 145 1 128 137
M  V30 146 1 130 138
M  V30 147 1 131 139
M  V30 148 1 133 140
M  V30 149 1 95 113
M  V30 150 1 116 123
M  V30 151 3 141 142
M  V30 152 1 142 143
M  V30 153 2 143 144
M  V30 154 1 144 145
M  V30 155 2 145 146
M  V30 156 1 146 147
M  V30 157 2 147 148
M  V30 158 1 148 149
M  V30 159 2 149 150
M  V30 160 1 150 151
M  V30 161 2 151 152
M  V30 162 1 152 143
M  V30 163 1 152 147
M  V30 164 1 144 153
M  V30 165 1 145 154
M  V30 166 1 146 155
M  V30 167 1 148 156
M  V30 168 1 150 157
M  V30 169 1 151 158
M  V30 170 2 159 160
M  V30 171 1 160 161
M  V30 172 2 161 162
M  V30 173 1 162 163
M  V30 174 2 163 164
M  V30 175 1 164 159
M  V30 176 1 160 165
M  V30 177 1 161 166
M  V30 178 1 163 167
M  V30 179 1 164 168
M  V30 180 3 169 170
M  V30 181 1 170 171
M  V30 182 2 171 172
M  V30 183 1 172 173
M  V30 184 2 173 174
M  V30 185 1 174 175
M  V30 186 2 175 176
M  V30 187 1 176 177
M  V30 188 2 177 178
M  V30 189 1 178 179
M  V30 190 2 179 180
M  V30 191 1 180 171
M  V30 192 1 180 175
M  V30 193 1 172 181
M  V30 194 1 173 182
M  V30 195 1 174 183
M  V30 196 1 176 184
M  V30 197 1 177 185
M  V30 198 1 179 186
M  V30 199 1 141 159
M  V30 200 1 162 169
M  V30 201 9 40 1
M  V30 202 9 86 1
M  V30 203 9 103 1
M  V30 204 9 149 1
M  V30 205 9 11 2
M  V30 206 9 57 2
M  V30 207 9 132 2
M  V30 208 9 178 2
M  V30 END BOND
M  V30 END CTAB
M  END

$$$$
