
     RDKit          3D

  0  0  0  0  0  0  0  0  0  0999 V3000
M  V30 BEGIN CTAB
M  V30 COUNTS 186 208 0 0 0
M  V30 BEGIN ATOM
M  V30 1 Pd -2.2977 5.8008 3.0884 0 CHG=2
M  V30 2 Pd 2.1366 -5.9036 -2.9218 0 CHG=2
M  V30 3 C 5.3297 0.9171 -1.2683 0
M  V30 4 C 5.7316 -0.1128 -1.7599 0
M  V30 5 C 6.1758 -1.3446 -2.2755 0
M  V30 6 C 7.5253 -1.6113 -2.4303 0
M  V30 7 C 7.9661 -2.8585 -2.8870 0
M  V30 8 C 7.0756 -3.8616 -3.1731 0
M  V30 9 C 5.6908 -3.6289 -3.0329 0
M  V30 10 C 4.7277 -4.6299 -3.2634 0
M  V30 11 N 3.4357 -4.4148 -3.1338 0
M  V30 12 C 2.9819 -3.1783 -2.8067 0
M  V30 13 C 3.8334 -2.1465 -2.5344 0
M  V30 14 C 5.2260 -2.3518 -2.6079 0
M  V30 15 H 8.2476 -0.8462 -2.1888 0
M  V30 16 H 9.0258 -3.0285 -2.9999 0
M  V30 17 H 7.4212 -4.8278 -3.5043 0
M  V30 18 H 5.0367 -5.6312 -3.5531 0
M  V30 19 H 1.8995 -3.0686 -2.7756 0
M  V30 20 H 3.4609 -1.1735 -2.2575 0
M  V30 21 C 4.8457 2.1037 -0.6856 0
M  V30 22 C 5.7277 3.1325 -0.3351 0
M  V30 23 C 5.2490 4.2896 0.2387 0
M  V30 24 C 3.8778 4.4426 0.4779 0
M  V30 25 C 2.9971 3.4114 0.1315 0
M  V30 26 C 3.4748 2.2565 -0.4453 0
M  V30 27 H 6.7849 3.0155 -0.5211 0
M  V30 28 H 5.9282 5.0856 0.5052 0
M  V30 29 H 1.9411 3.5368 0.3084 0
M  V30 30 H 2.7976 1.4634 -0.7199 0
M  V30 31 C 3.3929 5.6410 1.0346 0
M  V30 32 C 2.9695 6.6810 1.4866 0
M  V30 33 C 2.5245 7.9406 1.9260 0
M  V30 34 C 3.3838 9.0250 1.8860 0
M  V30 35 C 2.9484 10.3041 2.2448 0
M  V30 36 C 1.6493 10.5267 2.6298 0
M  V30 37 C 0.7431 9.4534 2.6960 0
M  V30 38 C -0.6108 9.6147 3.0685 0
M  V30 39 C -1.4321 8.5270 3.1328 0
M  V30 40 N -0.9859 7.2721 2.8779 0
M  V30 41 C 0.2641 7.0834 2.5034 0
M  V30 42 C 1.1812 8.1373 2.3680 0
M  V30 43 H 4.4027 8.8805 1.5604 0
M  V30 44 H 3.6465 11.1262 2.2015 0
M  V30 45 H 1.3108 11.5189 2.8835 0
M  V30 46 H -0.9828 10.6007 3.2967 0
M  V30 47 H -2.4849 8.6196 3.3936 0
M  V30 48 H 0.5780 6.0608 2.3057 0
M  V30 49 C 3.2931 -2.5288 3.9193 0
M  V30 50 C 3.7219 -3.5212 3.3762 0
M  V30 51 C 4.2384 -4.6374 2.6910 0
M  V30 52 C 5.3468 -5.3184 3.1631 0
M  V30 53 C 5.8949 -6.3885 2.4463 0
M  V30 54 C 5.3622 -6.7813 1.2454 0
M  V30 55 C 4.2258 -6.1188 0.7337 0
M  V30 56 C 3.6560 -6.4452 -0.5117 0
M  V30 57 N 2.5926 -5.8327 -0.9882 0
M  V30 58 C 1.9753 -4.8732 -0.2541 0
M  V30 59 C 2.4650 -4.4611 0.9521 0
M  V30 60 C 3.6344 -5.0534 1.4706 0
M  V30 61 H 5.7998 -5.0126 4.0939 0
M  V30 62 H 6.7581 -6.8973 2.8468 0
M  V30 63 H 5.8009 -7.5924 0.6865 0
M  V30 64 H 4.0968 -7.2255 -1.1277 0
M  V30 65 H 1.0674 -4.4597 -0.6877 0
M  V30 66 H 1.9731 -3.6860 1.5176 0
M  V30 67 C 2.7743 -1.3698 4.5282 0
M  V30 68 C 2.9799 -1.1285 5.8912 0
M  V30 69 C 2.4487 -0.0033 6.4821 0
M  V30 70 C 1.7051 0.9084 5.7223 0
M  V30 71 C 1.5184 0.6766 4.3547 0
M  V30 72 C 2.0434 -0.4510 3.7652 0
M  V30 73 H 3.5490 -1.8337 6.4785 0
M  V30 74 H 2.5983 0.1788 7.5359 0
M  V30 75 H 0.9570 1.3866 3.7692 0
M  V30 76 H 1.8992 -0.6357 2.7125 0
M  V30 77 C 1.1265 2.0271 6.3508 0
M  V30 78 C 0.5972 2.9623 6.9081 0
M  V30 79 C -0.0400 3.9804 7.6395 0
M  V30 80 C 0.1553 4.0656 9.0074 0
M  V30 81 C -0.5151 5.0232 9.7742 0
M  V30 82 C -1.4028 5.8967 9.1960 0
M  V30 83 C -1.6288 5.8521 7.8088 0
M  V30 84 C -2.5421 6.7089 7.1535 0
M  V30 85 C -2.7035 6.6236 5.8014 0
M  V30 86 N -1.9902 5.7532 5.0451 0
M  V30 87 C -1.1437 4.9230 5.6216 0
M  V30 88 C -0.9275 4.9036 7.0082 0
M  V30 89 H 0.8300 3.3745 9.4890 0
M  V30 90 H -0.3365 5.0608 10.8380 0
M  V30 91 H -1.9341 6.6205 9.7938 0
M  V30 92 H -3.1069 7.4221 7.7324 0
M  V30 93 H -3.4145 7.2526 5.2688 0
M  V30 94 H -0.5957 4.2397 4.9761 0
M  V30 95 C -5.5818 -0.9166 1.1854 0
M  V30 96 C -5.9812 0.1220 1.6604 0
M  V30 97 C -6.4179 1.3634 2.1605 0
M  V30 98 C -7.7650 1.6691 2.2432 0
M  V30 99 C -8.1933 2.9274 2.6821 0
M  V30 100 C -7.2906 3.9014 3.0241 0
M  V30 101 C -5.9077 3.6266 2.9629 0
M  V30 102 C -4.9295 4.5945 3.2603 0
M  V30 103 N -3.6391 4.3387 3.2097 0
M  V30 104 C -3.2056 3.0905 2.9017 0
M  V30 105 C -4.0708 2.0885 2.5671 0
M  V30 106 C -5.4581 2.3384 2.5550 0
M  V30 107 H -8.4952 0.9278 1.9561 0
M  V30 108 H -9.2520 3.1289 2.7360 0
M  V30 109 H -7.6251 4.8763 3.3412 0
M  V30 110 H -5.2247 5.6035 3.5386 0
M  V30 111 H -2.1287 2.9427 2.9428 0
M  V30 112 H -3.7114 1.1053 2.3090 0
M  V30 113 C -5.0883 -2.1151 0.6347 0
M  V30 114 C -3.7971 -2.1524 0.0944 0
M  V30 115 C -3.2997 -3.3234 -0.4310 0
M  V30 116 C -4.0783 -4.4864 -0.4217 0
M  V30 117 C -5.3753 -4.4449 0.1052 0
M  V30 118 C -5.8760 -3.2716 0.6251 0
M  V30 119 H -3.1996 -1.2547 0.0926 0
M  V30 120 H -2.3068 -3.3544 -0.8495 0
M  V30 121 H -5.9786 -5.3404 0.1063 0
M  V30 122 H -6.8743 -3.2416 1.0358 0
M  V30 123 C -3.5630 -5.7045 -0.9032 0
M  V30 124 C -3.1139 -6.7654 -1.2749 0
M  V30 125 C -2.6430 -8.0447 -1.6206 0
M  V30 126 C -3.4811 -9.1395 -1.4965 0
M  V30 127 C -3.0244 -10.4327 -1.7670 0
M  V30 128 C -1.7240 -10.6583 -2.1461 0
M  V30 129 C -0.8376 -9.5763 -2.2917 0
M  V30 130 C 0.5170 -9.7401 -2.6603 0
M  V30 131 C 1.3205 -8.6461 -2.7987 0
M  V30 132 N 0.8560 -7.3850 -2.6201 0
M  V30 133 C -0.3963 -7.1918 -2.2556 0
M  V30 134 C -1.2974 -8.2484 -2.0522 0
M  V30 135 H -4.5012 -8.9907 -1.1769 0
M  V30 136 H -3.7069 -11.2621 -1.6610 0
M  V30 137 H -1.3693 -11.6595 -2.3337 0
M  V30 138 H 0.9039 -10.7330 -2.8258 0
M  V30 139 H 2.3734 -8.7382 -3.0593 0
M  V30 140 H -0.7245 -6.1634 -2.1203 0
M  V30 141 C -3.2141 2.5555 -3.8449 0
M  V30 142 C -3.6333 3.5589 -3.3145 0
M  V30 143 C -4.1443 4.6860 -2.6444 0
M  V30 144 C -5.2024 5.4104 -3.1659 0
M  V30 145 C -5.7472 6.4946 -2.4684 0
M  V30 146 C -5.2642 6.8577 -1.2372 0
M  V30 147 C -4.1832 6.1478 -0.6725 0
M  V30 148 C -3.6725 6.4384 0.6071 0
M  V30 149 N -2.6639 5.7780 1.1353 0
M  V30 150 C -2.0447 4.8009 0.4255 0
M  V30 151 C -2.4801 4.4226 -0.8119 0
M  V30 152 C -3.5926 5.0681 -1.3888 0
M  V30 153 H -5.6164 5.1296 -4.1224 0
M  V30 154 H -6.5686 7.0388 -2.9085 0
M  V30 155 H -5.7014 7.6804 -0.6943 0
M  V30 156 H -4.1156 7.2292 1.2072 0
M  V30 157 H -1.1843 4.3428 0.9093 0
M  V30 158 H -1.9913 3.6322 -1.3583 0
M  V30 159 C -2.7242 1.3782 -4.4415 0
M  V30 160 C -1.7327 0.6279 -3.7977 0
M  V30 161 C -1.2560 -0.5282 -4.3727 0
M  V30 162 C -1.7562 -0.9598 -5.6066 0
M  V30 163 C -2.7486 -0.2102 -6.2502 0
M  V30 164 C -3.2283 0.9449 -5.6734 0
M  V30 165 H -1.3438 0.9666 -2.8505 0
M  V30 166 H -0.4851 -1.1028 -3.8850 0
M  V30 167 H -3.1336 -0.5428 -7.2026 0
M  V30 168 H -3.9923 1.5236 -6.1705 0
M  V30 169 C -1.2481 -2.1214 -6.2181 0
M  V30 170 C -0.7892 -3.1047 -6.7545 0
M  V30 171 C -0.2292 -4.1826 -7.4632 0
M  V30 172 C -0.4899 -4.3252 -8.8151 0
M  V30 173 C 0.1117 -5.3421 -9.5624 0
M  V30 174 C 0.9945 -6.2188 -8.9814 0
M  V30 175 C 1.2817 -6.1191 -7.6084 0
M  V30 176 C 2.1919 -6.9777 -6.9511 0
M  V30 177 C 2.4093 -6.8401 -5.6112 0
M  V30 178 N 1.7532 -5.9157 -4.8667 0
M  V30 179 C 0.9149 -5.0802 -5.4476 0
M  V30 180 C 0.6487 -5.1103 -6.8253 0
M  V30 181 H -1.1592 -3.6316 -9.3006 0
M  V30 182 H -0.1153 -5.4230 -10.6146 0
M  V30 183 H 1.4746 -6.9876 -9.5662 0
M  V30 184 H 2.7093 -7.7347 -7.5186 0
M  V30 185 H 3.1205 -7.4694 -5.0793 0
M  V30 186 H 0.4136 -4.3528 -4.8128 0
M  V30 END ATOM
M  V30 BEGIN BOND
M  V30 1 3 3 4
M  V30 2 1 4 5
M  V30 3 2 5 6
M  V30 4 1 6 7
M  V30 5 2 7 8
M  V30 6 1 8 9
M  V30 7 2 9 10
M  V30 8 1 10 11
M  V30 9 2 11 12
M  V30 10 1 12 13
M  V30 11 2 13 14
M  V30 12 1 14 5
M  V30 13 1 14 9
M  V30 14 1 6 15
M  V30 15 1 7 16
M  V30 16 1 8 17
M  V30 17 1 10 18
M  V30 18 1 12 19
M  V30 19 1 13 20
M  V30 20 2 21 22
M  V30 21 1 22 23
M  V30 22 2 23 24
M  V30 23 1 24 25
M  V30 24 2 25 26
M  V30 25 1 26 21
M  V30 26 1 22 27
M  V30 27 1 23 28
M  V30 28 1 25 29
M  V30 29 1 26 30
M  V30 30 3 31 32
M  V30 31 1 32 33
M  V30 32 2 33 34
M  V30 33 1 34 35
M  V30 34 2 35 36
M  V30 35 1 36 37
M  V30 36 2 37 38
M  V30 37 1 38 39
M  V30 38 2 39 40
M  V30 39 1 40 41
M  V30 40 2 41 42
M  V30 41 1 42 33
M  V30 42 1 42 37
M  V30 43 1 34 43
M  V30 44 1 35 44
M  V30 45 1 36 45
M  V30 46 1 38 46
M  V30 47 1 39 47
M  V30 48 1 41 48
M  V30 49 1 3 21
M  V30 50 1 24 31
M  V30 51 3 49 50
M  V30 52 1 50 51
M  V30 53 2 51 52
M  V30 54 1 52 53
M  V30 55 2 53 54
M  V30 56 1 54 55
M  V30 57 2 55 56
M  V30 58 1 56 57
M  V30 59 2 57 58
M  V30 60 1 58 59
M  V30 61 2 59 60
M  V30 62 1 60 51
M  V30 63 1 60 55
M  V30 64 1 52 61
M  V30 65 1 53 62
M  V30 66 1 54 63
M  V30 67 1 56 64
M  V30 68 1 58 65
M  V30 69 1 59 66
M  V30 70 2 67 68
M  V30 71 1 68 69
M  V30 72 2 69 70
M  V30 73 1 70 71
M  V30 74 2 71 72
M  V30 75 1 72 67
M  V30 76 1 68 73
M  V30 77 1 69 74
M  V30 78 1 71 75
M  V30 79 1 72 76
M  V30 80 3 77 78
M  V30 81 1 78 79
M  V30 82 2 79 80
M  V30 83 1 80 81
M  V30 84 2 81 82
M  V30 85 1 82 83
M  V30 86 2 83 84
M  V30 87 1 84 85
M  V30 88 2 85 86
M  V30 89 1 86 87
M  V30 90 2 87 88
M  V30 91 1 88 79
M  V30 92 1 88 83
M  V30 93 1 80 89
M  V30 94 1 81 90
M  V30 95 1 82 91
M  V30 96 1 84 92
M  V30 97 1 85 93
M  V30 98 1 87 94
M  V30 99 1 49 67
M  V30 100 1 70 77
M  V30 101 3 95 96
M  V30 102 1 96 97
M  V30 103 2 97 98
M  V30 104 1 98 99
M  V30 105 2 99 100
M  V30 106 1 100 101
M  V30 107 2 101 102
M  V30 108 1 102 103
M  V30 109 2 103 104
M  V30 110 1 104 105
M  V30 111 2 105 106
M  V30 112 1 106 97
M  V30 113 1 106 101
M  V30 114 1 98 107
M  V30 115 1 99 108
M  V30 116 1 100 109
M  V30 117 1 102 110
M  V30 118 1 104 111
M  V30 119 1 105 112
M  V30 120 2 113 114
M  V30 121 1 114 115
M  V30 122 2 115 116
M  V30 123 1 116 117
M  V30 124 2 117 118
M  V30 125 1 118 113
M  V30 126 1 114 119
M  V30 127 1 115 120
M  V30 128 1 117 121
M  V30 129 1 118 122
M  V30 130 3 123 124
M  V30 131 1 124 125
M  V30 132 2 125 126
M  V30 133 1 126 127
M  V30 134 2 127 128
M  V30 135 1 128 129
M  V30 136 2 129 130
M  V30 137 1 130 131
M  V30 138 2 131 132
M  V30 139 1 132 133
M  V30 140 2 133 134
M  V30 141 1 134 125
M  V30 142 1 134 129
M  V30 143 1 126 135
M  V30 144 1 127 136
M  V30 145 1 128 137
M  V30 146 1 130 138
M  V30 147 1 131 139
M  V30 148 1 133 140
M  V30 149 1 95 113
M  V30 150 1 116 123
M  V30 151 3 141 142
M  V30 152 1 142 143
M  V30 153 2 143 144
M  V30 154 1 144 145
M  V30 155 2 145 146
M  V30 156 1 146 147
M  V30 157 2 147 148
M  V30 158 1 148 149
M  V30 159 2 149 150
M  V30 160 1 150 151
M  V30 161 2 151 152
M  V30 162 1 152 143
M  V30 163 1 152 147
M  V30 164 1 144 153
M  V30 165 1 145 154
M  V30 166 1 146 155
M  V30 167 1 148 156
M  V30 168 1 150 157
M  V30 169 1 151 158
M  V30 170 2 159 160
M  V30 171 1 160 161
M  V30 172 2 161 162
M  V30 173 1 162 163
M  V30 174 2 163 164
M  V30 175 1 164 159
M  V30 176 1 160 165
M  V30 177 1 161 166
M  V30 178 1 163 167
M  V30 179 1 164 168
M  V30 180 3 169 170
M  V30 181 1 170 171
M  V30 182 2 171 172
M  V30 183 1 172 173
M  V30 184 2 173 174
M  V30 185 1 174 175
M  V30 186 2 175 176
M  V30 187 1 176 177
M  V30 188 2 177 178
M  V30 189 1 178 179
M  V30 190 2 179 180
M  V30 191 1 180 171
M  V30 192 1 180 175
M  V30 193 1 172 181
M  V30 194 1 173 182
M  V30 195 1 174 183
M  V30 196 1 176 184
M  V30 197 1 177 185
M  V30 198 1 179 186
M  V30 199 1 141 159
M  V30 200 1 162 169
M  V30 201 9 40 1
M  V30 202 9 86 1
M  V30 203 9 103 1
M  V30 204 9 149 1
M  V30 205 9 11 2
M  V30 206 9 57 2
M  V30 207 9 132 2
M  V30 208 9 178 2
M  V30 END BOND
M  V30 END CTAB
M  END

$$$$
