
     RDKit          3D

  0  0  0  0  0  0  0  0  0  0999 V3000
M  V30 BEGIN CTAB
M  V30 COUNTS 186 208 0 0 0
M  V30 BEGIN ATOM
M  V30 1 Pd 1.8258 7.1121 -0.2493 0 CHG=2
M  V30 2 Pd -2.0436 -6.2163 -0.6515 0 CHG=2
M  V30 3 C 2.9454 -2.1190 3.5644 0
M  V30 4 C 2.5858 -3.2741 3.5581 0
M  V30 5 C 2.1017 -4.5955 3.5566 0
M  V30 6 C 2.3740 -5.4592 4.6036 0
M  V30 7 C 1.8419 -6.7534 4.6279 0
M  V30 8 C 1.0162 -7.1970 3.6267 0
M  V30 9 C 0.7174 -6.3492 2.5389 0
M  V30 10 C -0.1606 -6.7256 1.5044 0
M  V30 11 N -0.4402 -5.9366 0.4888 0
M  V30 12 C 0.1584 -4.7230 0.3858 0
M  V30 13 C 1.0030 -4.2516 1.3494 0
M  V30 14 C 1.2842 -5.0441 2.4807 0
M  V30 15 H 3.0019 -5.1256 5.4159 0
M  V30 16 H 2.0801 -7.4002 5.4582 0
M  V30 17 H 0.5916 -8.1875 3.6606 0
M  V30 18 H -0.6468 -7.6978 1.5251 0
M  V30 19 H -0.0817 -4.1557 -0.5114 0
M  V30 20 H 1.4580 -3.2779 1.2653 0
M  V30 21 C 3.3441 -0.7688 3.5621 0
M  V30 22 C 4.1478 -0.2651 4.5915 0
M  V30 23 C 4.5313 1.0578 4.5864 0
M  V30 24 C 4.1171 1.9077 3.5534 0
M  V30 25 C 3.3094 1.4043 2.5270 0
M  V30 26 C 2.9291 0.0815 2.5299 0
M  V30 27 H 4.4688 -0.9207 5.3872 0
M  V30 28 H 5.1550 1.4461 5.3777 0
M  V30 29 H 3.0005 2.0594 1.7285 0
M  V30 30 H 2.3130 -0.3107 1.7365 0
M  V30 31 C 4.5400 3.2501 3.5381 0
M  V30 32 C 4.9250 4.3973 3.5067 0
M  V30 33 C 5.4757 5.6908 3.4711 0
M  V30 34 C 6.5502 6.0026 4.2861 0
M  V30 35 C 7.1667 7.2556 4.2192 0
M  V30 36 C 6.7365 8.2085 3.3292 0
M  V30 37 C 5.6414 7.9406 2.4886 0
M  V30 38 C 5.1577 8.8697 1.5396 0
M  V30 39 C 4.0768 8.5539 0.7692 0
M  V30 40 N 3.4187 7.3755 0.9009 0
M  V30 41 C 3.8541 6.4729 1.7576 0
M  V30 42 C 4.9794 6.6810 2.5701 0
M  V30 43 H 6.9242 5.2606 4.9750 0
M  V30 44 H 8.0021 7.4635 4.8702 0
M  V30 45 H 7.2294 9.1658 3.2640 0
M  V30 46 H 5.6519 9.8220 1.4322 0
M  V30 47 H 3.6936 9.2371 0.0133 0
M  V30 48 H 3.2978 5.5407 1.8276 0
M  V30 49 C -3.3282 -0.3249 4.1619 0
M  V30 50 C -3.6212 -1.4986 4.1557 0
M  V30 51 C -3.8964 -2.8793 4.1398 0
M  V30 52 C -4.3791 -3.5270 5.2635 0
M  V30 53 C -4.5920 -4.9105 5.2627 0
M  V30 54 C -4.3098 -5.6682 4.1552 0
M  V30 55 C -3.8248 -5.0446 2.9856 0
M  V30 56 C -3.4766 -5.7695 1.8299 0
M  V30 57 N -3.0297 -5.1894 0.7359 0
M  V30 58 C -2.9293 -3.8377 0.6761 0
M  V30 59 C -3.2122 -3.0452 1.7515 0
M  V30 60 C -3.6398 -3.6329 2.9593 0
M  V30 61 H -4.5856 -2.9563 6.1562 0
M  V30 62 H -4.9717 -5.3806 6.1567 0
M  V30 63 H -4.4552 -6.7366 4.1665 0
M  V30 64 H -3.5640 -6.8533 1.8166 0
M  V30 65 H -2.6133 -3.4309 -0.2820 0
M  V30 66 H -3.1126 -1.9731 1.6947 0
M  V30 67 C -2.9756 1.0384 4.1408 0
M  V30 68 C -3.5604 1.9391 5.0380 0
M  V30 69 C -3.2257 3.2746 4.9938 0
M  V30 70 C -2.2948 3.7381 4.0556 0
M  V30 71 C -1.6950 2.8325 3.1731 0
M  V30 72 C -2.0340 1.4990 3.2125 0
M  V30 73 H -4.2818 1.5831 5.7583 0
M  V30 74 H -3.6837 3.9723 5.6790 0
M  V30 75 H -0.9688 3.1894 2.4608 0
M  V30 76 H -1.5771 0.7980 2.5321 0
M  V30 77 C -2.0010 5.1131 3.9897 0
M  V30 78 C -1.7874 6.3021 3.9121 0
M  V30 79 C -1.6471 7.6994 3.8395 0
M  V30 80 C -2.3542 8.5050 4.7156 0
M  V30 81 C -2.2898 9.8986 4.6272 0
M  V30 82 C -1.5374 10.5112 3.6555 0
M  V30 83 C -0.7969 9.7341 2.7470 0
M  V30 84 C -0.0177 10.2999 1.7125 0
M  V30 85 C 0.6893 9.4891 0.8734 0
M  V30 86 N 0.6956 8.1403 1.0121 0
M  V30 87 C -0.0349 7.5733 1.9518 0
M  V30 88 C -0.8255 8.3122 2.8455 0
M  V30 89 H -2.9718 8.0472 5.4732 0
M  V30 90 H -2.8536 10.4944 5.3286 0
M  V30 91 H -1.5066 11.5866 3.5770 0
M  V30 92 H 0.0072 11.3714 1.5947 0
M  V30 93 H 1.2811 9.8907 0.0528 0
M  V30 94 H -0.0020 6.4882 2.0238 0
M  V30 95 C -2.9611 2.9704 -4.6610 0
M  V30 96 C -2.5842 4.1200 -4.6602 0
M  V30 97 C -2.0815 5.4351 -4.6593 0
M  V30 98 C -2.2805 6.2793 -5.7376 0
M  V30 99 C -1.7259 7.5643 -5.7593 0
M  V30 100 C -0.9523 8.0177 -4.7218 0
M  V30 101 C -0.7330 7.1911 -3.5991 0
M  V30 102 C 0.0841 7.5800 -2.5206 0
M  V30 103 N 0.2852 6.8132 -1.4696 0
M  V30 104 C -0.3394 5.6124 -1.3753 0
M  V30 105 C -1.1280 5.1287 -2.3797 0
M  V30 106 C -1.3227 5.8960 -3.5461 0
M  V30 107 H -2.8653 5.9369 -6.5778 0
M  V30 108 H -1.9047 8.1955 -6.6161 0
M  V30 109 H -0.5095 9.0004 -4.7527 0
M  V30 110 H 0.5868 8.5442 -2.5346 0
M  V30 111 H -0.1729 5.0666 -0.4493 0
M  V30 112 H -1.6056 4.1655 -2.2980 0
M  V30 113 C -3.3853 1.6277 -4.6353 0
M  V30 114 C -2.7254 0.7054 -3.8141 0
M  V30 115 C -3.1432 -0.6054 -3.7695 0
M  V30 116 C -4.2352 -1.0232 -4.5389 0
M  V30 117 C -4.8856 -0.1037 -5.3715 0
M  V30 118 C -4.4636 1.2066 -5.4214 0
M  V30 119 H -1.8867 1.0328 -3.2205 0
M  V30 120 H -2.6357 -1.3179 -3.1398 0
M  V30 121 H -5.7238 -0.4275 -5.9701 0
M  V30 122 H -4.9687 1.9163 -6.0598 0
M  V30 123 C -4.7097 -2.3460 -4.4610 0
M  V30 124 C -5.1518 -3.4692 -4.3684 0
M  V30 125 C -5.7663 -4.7298 -4.2645 0
M  V30 126 C -6.8934 -5.0065 -5.0192 0
M  V30 127 C -7.5676 -6.2242 -4.8902 0
M  V30 128 C -7.1430 -7.1761 -3.9962 0
M  V30 129 C -5.9990 -6.9423 -3.2125 0
M  V30 130 C -5.5194 -7.8710 -2.2612 0
M  V30 131 C -4.3940 -7.5884 -1.5433 0
M  V30 132 N -3.6905 -6.4445 -1.7292 0
M  V30 133 C -4.1170 -5.5439 -2.5926 0
M  V30 134 C -5.2810 -5.7193 -3.3569 0
M  V30 135 H -7.2609 -4.2648 -5.7117 0
M  V30 136 H -8.4420 -6.4055 -5.4965 0
M  V30 137 H -7.6779 -8.1060 -3.8843 0
M  V30 138 H -6.0524 -8.7960 -2.1095 0
M  V30 139 H -4.0106 -8.2712 -0.7872 0
M  V30 140 H -3.5228 -4.6397 -2.7063 0
M  V30 141 C 3.3298 1.1440 -4.8928 0
M  V30 142 C 3.6415 2.3131 -4.8839 0
M  V30 143 C 3.9355 3.6893 -4.8701 0
M  V30 144 C 4.4945 4.3133 -5.9721 0
M  V30 145 C 4.7305 5.6927 -5.9770 0
M  V30 146 C 4.3939 6.4713 -4.8992 0
M  V30 147 C 3.8260 5.8732 -3.7542 0
M  V30 148 C 3.4139 6.6214 -2.6348 0
M  V30 149 N 2.8847 6.0654 -1.5655 0
M  V30 150 C 2.7570 4.7162 -1.4933 0
M  V30 151 C 3.0993 3.9029 -2.5351 0
M  V30 152 C 3.6177 4.4650 -3.7193 0
M  V30 153 H 4.7461 3.7263 -6.8423 0
M  V30 154 H 5.1722 6.1437 -6.8522 0
M  V30 155 H 4.5580 7.5369 -4.9162 0
M  V30 156 H 3.5181 7.7036 -2.6305 0
M  V30 157 H 2.3640 4.3316 -0.5542 0
M  V30 158 H 2.9759 2.8338 -2.4727 0
M  V30 159 C 2.9482 -0.2110 -4.8918 0
M  V30 160 C 2.2773 -0.7481 -3.7864 0
M  V30 161 C 1.8946 -2.0702 -3.7835 0
M  V30 162 C 2.1769 -2.8879 -4.8838 0
M  V30 163 C 2.8469 -2.3509 -5.9899 0
M  V30 164 C 3.2268 -1.0270 -5.9946 0
M  V30 165 H 2.0676 -0.1177 -2.9369 0
M  V30 166 H 1.3874 -2.4898 -2.9297 0
M  V30 167 H 3.0654 -2.9822 -6.8383 0
M  V30 168 H 3.7448 -0.6134 -6.8469 0
M  V30 169 C 1.8210 -4.2498 -4.8734 0
M  V30 170 C 1.5391 -5.4267 -4.8496 0
M  V30 171 C 1.3189 -6.8156 -4.8369 0
M  V30 172 C 1.9552 -7.6204 -5.7660 0
M  V30 173 C 1.8155 -9.0110 -5.7318 0
M  V30 174 C 1.0577 -9.6218 -4.7633 0
M  V30 175 C 0.3841 -8.8441 -3.8046 0
M  V30 176 C -0.3987 -9.4084 -2.7719 0
M  V30 177 C -1.0435 -8.5952 -1.8862 0
M  V30 178 N -0.9864 -7.2433 -1.9771 0
M  V30 179 C -0.2470 -6.6791 -2.9116 0
M  V30 180 C 0.4873 -7.4232 -3.8481 0
M  V30 181 H 2.5785 -7.1657 -6.5207 0
M  V30 182 H 2.3264 -9.6069 -6.4727 0
M  V30 183 H 0.9710 -10.6964 -4.7260 0
M  V30 184 H -0.4764 -10.4810 -2.6929 0
M  V30 185 H -1.6351 -8.9976 -1.0659 0
M  V30 186 H -0.2274 -5.5920 -2.9452 0
M  V30 END ATOM
M  V30 BEGIN BOND
M  V30 1 3 3 4
M  V30 2 1 4 5
M  V30 3 2 5 6
M  V30 4 1 6 7
M  V30 5 2 7 8
M  V30 6 1 8 9
M  V30 7 2 9 10
M  V30 8 1 10 11
M  V30 9 2 11 12
M  V30 10 1 12 13
M  V30 11 2 13 14
M  V30 12 1 14 5
M  V30 13 1 14 9
M  V30 14 1 6 15
M  V30 15 1 7 16
M  V30 16 1 8 17
M  V30 17 1 10 18
M  V30 18 1 12 19
M  V30 19 1 13 20
M  V30 20 2 21 22
M  V30 21 1 22 23
M  V30 22 2 23 24
M  V30 23 1 24 25
M  V30 24 2 25 26
M  V30 25 1 26 21
M  V30 26 1 22 27
M  V30 27 1 23 28
M  V30 28 1 25 29
M  V30 29 1 26 30
M  V30 30 3 31 32
M  V30 31 1 32 33
M  V30 32 2 33 34
M  V30 33 1 34 35
M  V30 34 2 35 36
M  V30 35 1 36 37
M  V30 36 2 37 38
M  V30 37 1 38 39
M  V30 38 2 39 40
M  V30 39 1 40 41
M  V30 40 2 41 42
M  V30 41 1 42 33
M  V30 42 1 42 37
M  V30 43 1 34 43
M  V30 44 1 35 44
M  V30 45 1 36 45
M  V30 46 1 38 46
M  V30 47 1 39 47
M  V30 48 1 41 48
M  V30 49 1 3 21
M  V30 50 1 24 31
M  V30 51 3 49 50
M  V30 52 1 50 51
M  V30 53 2 51 52
M  V30 54 1 52 53
M  V30 55 2 53 54
M  V30 56 1 54 55
M  V30 57 2 55 56
M  V30 58 1 56 57
M  V30 59 2 57 58
M  V30 60 1 58 59
M  V30 61 2 59 60
M  V30 62 1 60 51
M  V30 63 1 60 55
M  V30 64 1 52 61
M  V30 65 1 53 62
M  V30 66 1 54 63
M  V30 67 1 56 64
M  V30 68 1 58 65
M  V30 69 1 59 66
M  V30 70 2 67 68
M  V30 71 1 68 69
M  V30 72 2 69 70
M  V30 73 1 70 71
M  V30 74 2 71 72
M  V30 75 1 72 67
M  V30 76 1 68 73
M  V30 77 1 69 74
M  V30 78 1 71 75
M  V30 79 1 72 76
M  V30 80 3 77 78
M  V30 81 1 78 79
M  V30 82 2 79 80
M  V30 83 1 80 81
M  V30 84 2 81 82
M  V30 85 1 82 83
M  V30 86 2 83 84
M  V30 87 1 84 85
M  V30 88 2 85 86
M  V30 89 1 86 87
M  V30 90 2 87 88
M  V30 91 1 88 79
M  V30 92 1 88 83
M  V30 93 1 80 89
M  V30 94 1 81 90
M  V30 95 1 82 91
M  V30 96 1 84 92
M  V30 97 1 85 93
M  V30 98 1 87 94
M  V30 99 1 49 67
M  V30 100 1 70 77
M  V30 101 3 95 96
M  V30 102 1 96 97
M  V30 103 2 97 98
M  V30 104 1 98 99
M  V30 105 2 99 100
M  V30 106 1 100 101
M  V30 107 2 101 102
M  V30 108 1 102 103
M  V30 109 2 103 104
M  V30 110 1 104 105
M  V30 111 2 105 106
M  V30 112 1 106 97
M  V30 113 1 106 101
M  V30 114 1 98 107
M  V30 115 1 99 108
M  V30 116 1 100 109
M  V30 117 1 102 110
M  V30 118 1 104 111
M  V30 119 1 105 112
M  V30 120 2 113 114
M  V30 121 1 114 115
M  V30 122 2 115 116
M  V30 123 1 116 117
M  V30 124 2 117 118
M  V30 125 1 118 113
M  V30 126 1 114 119
M  V30 127 1 115 120
M  V30 128 1 117 121
M  V30 129 1 118 122
M  V30 130 3 123 124
M  V30 131 1 124 125
M  V30 132 2 125 126
M  V30 133 1 126 127
M  V30 134 2 127 128
M  V30 135 1 128 129
M  V30 136 2 129 130
M  V30 137 1 130 131
M  V30 138 2 131 132
M  V30 139 1 132 133
M  V30 140 2 133 134
M  V30 141 1 134 125
M  V30 142 1 134 129
M  V30 143 1 126 135
M  V30 144 1 127 136
M  V30 145 1 128 137
M  V30 146 1 130 138
M  V30 147 1 131 139
M  V30 148 1 133 140
M  V30 149 1 95 113
M  V30 150 1 116 123
M  V30 151 3 141 142
M  V30 152 1 142 143
M  V30 153 2 143 144
M  V30 154 1 144 145
M  V30 155 2 145 146
M  V30 156 1 146 147
M  V30 157 2 147 148
M  V30 158 1 148 149
M  V30 159 2 149 150
M  V30 160 1 150 151
M  V30 161 2 151 152
M  V30 162 1 152 143
M  V30 163 1 152 147
M  V30 164 1 144 153
M  V30 165 1 145 154
M  V30 166 1 146 155
M  V30 167 1 148 156
M  V30 168 1 150 157
M  V30 169 1 151 158
M  V30 170 2 159 160
M  V30 171 1 160 161
M  V30 172 2 161 162
M  V30 173 1 162 163
M  V30 174 2 163 164
M  V30 175 1 164 159
M  V30 176 1 160 165
M  V30 177 1 161 166
M  V30 178 1 163 167
M  V30 179 1 164 168
M  V30 180 3 169 170
M  V30 181 1 170 171
M  V30 182 2 171 172
M  V30 183 1 172 173
M  V30 184 2 173 174
M  V30 185 1 174 175
M  V30 186 2 175 176
M  V30 187 1 176 177
M  V30 188 2 177 178
M  V30 189 1 178 179
M  V30 190 2 179 180
M  V30 191 1 180 171
M  V30 192 1 180 175
M  V30 193 1 172 181
M  V30 194 1 173 182
M  V30 195 1 174 183
M  V30 196 1 176 184
M  V30 197 1 177 185
M  V30 198 1 179 186
M  V30 199 1 141 159
M  V30 200 1 162 169
M  V30 201 9 40 1
M  V30 202 9 86 1
M  V30 203 9 103 1
M  V30 204 9 149 1
M  V30 205 9 11 2
M  V30 206 9 57 2
M  V30 207 9 132 2
M  V30 208 9 178 2
M  V30 END BOND
M  V30 END CTAB
M  END

$$$$
