
     RDKit          3D

  0  0  0  0  0  0  0  0  0  0999 V3000
M  V30 BEGIN CTAB
M  V30 COUNTS 186 208 0 0 0
M  V30 BEGIN ATOM
M  V30 1 Pd 5.3020 -2.4099 4.7067 0 CHG=2
M  V30 2 Pd -4.2723 1.7802 -4.4341 0 CHG=2
M  V30 3 C 3.4359 1.6464 -4.2974 0
M  V30 4 C 2.6059 1.9796 -5.1121 0
M  V30 5 C 1.6116 2.3040 -6.0538 0
M  V30 6 C 1.9288 2.5239 -7.3832 0
M  V30 7 C 0.9311 2.7877 -8.3285 0
M  V30 8 C -0.3926 2.8133 -7.9707 0
M  V30 9 C -0.7579 2.5985 -6.6246 0
M  V30 10 C -2.1002 2.5639 -6.2006 0
M  V30 11 N -2.4429 2.3642 -4.9456 0
M  V30 12 C -1.4860 2.2247 -3.9935 0
M  V30 13 C -0.1565 2.2143 -4.3036 0
M  V30 14 C 0.2495 2.3691 -5.6446 0
M  V30 15 H 2.9616 2.4853 -7.6948 0
M  V30 16 H 1.2167 2.9590 -9.3550 0
M  V30 17 H -1.1592 2.9958 -8.7067 0
M  V30 18 H -2.9053 2.6962 -6.9191 0
M  V30 19 H -1.8505 2.1208 -2.9733 0
M  V30 20 H 0.5938 2.0839 -3.5407 0
M  V30 21 C 4.3864 1.2447 -3.3397 0
M  V30 22 C 5.7419 1.1597 -3.6785 0
M  V30 23 C 6.6669 0.7620 -2.7387 0
M  V30 24 C 6.2569 0.4372 -1.4397 0
M  V30 25 C 4.9007 0.5177 -1.1033 0
M  V30 26 C 3.9766 0.9187 -2.0411 0
M  V30 27 H 6.0585 1.4119 -4.6796 0
M  V30 28 H 7.7134 0.7006 -2.9979 0
M  V30 29 H 4.5902 0.2760 -0.0995 0
M  V30 30 H 2.9319 0.9888 -1.7825 0
M  V30 31 C 7.2123 0.0630 -0.4762 0
M  V30 32 C 8.0341 -0.2315 0.3624 0
M  V30 33 C 9.0375 -0.4763 1.3168 0
M  V30 34 C 10.3549 -0.1704 1.0224 0
M  V30 35 C 11.3637 -0.3320 1.9767 0
M  V30 36 C 11.0748 -0.7813 3.2417 0
M  V30 37 C 9.7520 -1.1148 3.5832 0
M  V30 38 C 9.3831 -1.5673 4.8704 0
M  V30 39 C 8.0839 -1.8942 5.1293 0
M  V30 40 N 7.1217 -1.8294 4.1760 0
M  V30 41 C 7.4213 -1.3886 2.9700 0
M  V30 42 C 8.7180 -0.9898 2.6102 0
M  V30 43 H 10.6033 0.2104 0.0435 0
M  V30 44 H 12.3800 -0.0835 1.7117 0
M  V30 45 H 11.8521 -0.8824 3.9828 0
M  V30 46 H 10.1354 -1.6475 5.6386 0
M  V30 47 H 7.7625 -2.2238 6.1157 0
M  V30 48 H 6.6177 -1.3498 2.2379 0
M  V30 49 C 0.5482 -4.2267 -3.9783 0
M  V30 50 C -0.2475 -3.8341 -4.8008 0
M  V30 51 C -1.1422 -3.3166 -5.7568 0
M  V30 52 C -1.1699 -3.8055 -7.0512 0
M  V30 53 C -2.0167 -3.2462 -8.0152 0
M  V30 54 C -2.8295 -2.1844 -7.7112 0
M  V30 55 C -2.8380 -1.6625 -6.4000 0
M  V30 56 C -3.6172 -0.5485 -6.0336 0
M  V30 57 N -3.6313 -0.0636 -4.8098 0
M  V30 58 C -2.9082 -0.6655 -3.8322 0
M  V30 59 C -2.0959 -1.7327 -4.0891 0
M  V30 60 C -2.0101 -2.2460 -5.3991 0
M  V30 61 H -0.5214 -4.6248 -7.3221 0
M  V30 62 H -2.0128 -3.6553 -9.0137 0
M  V30 63 H -3.4644 -1.7433 -8.4629 0
M  V30 64 H -4.2353 -0.0456 -6.7736 0
M  V30 65 H -3.0218 -0.2447 -2.8355 0
M  V30 66 H -1.5144 -2.1913 -3.3055 0
M  V30 67 C 1.4645 -4.6619 -3.0015 0
M  V30 68 C 2.0348 -5.9375 -3.0783 0
M  V30 69 C 2.9125 -6.3622 -2.1053 0
M  V30 70 C 3.2439 -5.5189 -1.0373 0
M  V30 71 C 2.6893 -4.2355 -0.9735 0
M  V30 72 C 1.8071 -3.8132 -1.9419 0
M  V30 73 H 1.7758 -6.5899 -3.8988 0
M  V30 74 H 3.3455 -7.3500 -2.1581 0
M  V30 75 H 2.9563 -3.5833 -0.1576 0
M  V30 76 H 1.3744 -2.8264 -1.8950 0
M  V30 77 C 4.1029 -5.9857 -0.0246 0
M  V30 78 C 4.8077 -6.4112 0.8630 0
M  V30 79 C 5.5731 -7.0016 1.8842 0
M  V30 80 C 6.0025 -8.3107 1.7482 0
M  V30 81 C 6.7074 -8.9496 2.7725 0
M  V30 82 C 6.9789 -8.3035 3.9533 0
M  V30 83 C 6.5681 -6.9708 4.1348 0
M  V30 84 C 6.7986 -6.2543 5.3312 0
M  V30 85 C 6.3869 -4.9579 5.4368 0
M  V30 86 N 5.7793 -4.3102 4.4122 0
M  V30 87 C 5.5279 -4.9505 3.2874 0
M  V30 88 C 5.8779 -6.2946 3.0867 0
M  V30 89 H 5.7806 -8.8479 0.8387 0
M  V30 90 H 7.0276 -9.9703 2.6301 0
M  V30 91 H 7.5046 -8.8063 4.7498 0
M  V30 92 H 7.2967 -6.7434 6.1529 0
M  V30 93 H 6.5283 -4.3848 6.3513 0
M  V30 94 H 5.0355 -4.3922 2.4939 0
M  V30 95 C -2.4037 -2.0209 4.6968 0
M  V30 96 C -1.5682 -2.3361 5.5131 0
M  V30 97 C -0.5653 -2.6429 6.4523 0
M  V30 98 C -0.8614 -2.7852 7.7966 0
M  V30 99 C 0.1479 -3.0283 8.7355 0
M  V30 100 C 1.4624 -3.1129 8.3541 0
M  V30 101 C 1.8053 -2.9831 6.9912 0
M  V30 102 C 3.1382 -3.0188 6.5392 0
M  V30 103 N 3.4601 -2.9040 5.2679 0
M  V30 104 C 2.4878 -2.7869 4.3288 0
M  V30 105 C 1.1664 -2.7113 4.6644 0
M  V30 106 C 0.7850 -2.7739 6.0201 0
M  V30 107 H -1.8858 -2.6981 8.1256 0
M  V30 108 H -0.1212 -3.1361 9.7749 0
M  V30 109 H 2.2385 -3.2790 9.0838 0
M  V30 110 H 3.9538 -3.1374 7.2487 0
M  V30 111 H 2.8307 -2.7611 3.2969 0
M  V30 112 H 0.4052 -2.6024 3.9086 0
M  V30 113 C -3.3543 -1.6519 3.7255 0
M  V30 114 C -2.9365 -1.0182 2.5489 0
M  V30 115 C -3.8562 -0.6687 1.5862 0
M  V30 116 C -5.2140 -0.9515 1.7735 0
M  V30 117 C -5.6333 -1.5719 2.9572 0
M  V30 118 C -4.7141 -1.9158 3.9238 0
M  V30 119 H -1.8887 -0.8055 2.4075 0
M  V30 120 H -3.5374 -0.1790 0.6804 0
M  V30 121 H -6.6817 -1.7839 3.1048 0
M  V30 122 H -5.0375 -2.3986 4.8340 0
M  V30 123 C -6.1588 -0.6520 0.7741 0
M  V30 124 C -6.9721 -0.4378 -0.0965 0
M  V30 125 C -7.9630 -0.2861 -1.0828 0
M  V30 126 C -9.2639 -0.6744 -0.8119 0
M  V30 127 C -10.2584 -0.6000 -1.7916 0
M  V30 128 C -9.9704 -0.1571 -3.0590 0
M  V30 129 C -8.6643 0.2542 -3.3789 0
M  V30 130 C -8.2965 0.7026 -4.6679 0
M  V30 131 C -7.0141 1.1018 -4.9080 0
M  V30 132 N -6.0693 1.1110 -3.9357 0
M  V30 133 C -6.3679 0.6807 -2.7258 0
M  V30 134 C -7.6467 0.2162 -2.3813 0
M  V30 135 H -9.5102 -1.0487 0.1700 0
M  V30 136 H -11.2621 -0.9100 -1.5435 0
M  V30 137 H -10.7356 -0.1208 -3.8183 0
M  V30 138 H -9.0360 0.7214 -5.4524 0
M  V30 139 H -6.6922 1.4311 -5.8944 0
M  V30 140 H -5.5777 0.7029 -1.9782 0
M  V30 141 C 0.6810 3.7309 4.0922 0
M  V30 142 C 1.4880 3.3535 4.9109 0
M  V30 143 C 2.3917 2.8533 5.8667 0
M  V30 144 C 2.4696 3.4026 7.1350 0
M  V30 145 C 3.3264 2.8650 8.1022 0
M  V30 146 C 4.0975 1.7642 7.8300 0
M  V30 147 C 4.0509 1.1769 6.5476 0
M  V30 148 C 4.7798 0.0181 6.2186 0
M  V30 149 N 4.7382 -0.5307 5.0229 0
M  V30 150 C 4.0054 0.0443 4.0360 0
M  V30 151 C 3.2401 1.1528 4.2588 0
M  V30 152 C 3.2142 1.7378 5.5411 0
M  V30 153 H 1.8548 4.2549 7.3818 0
M  V30 154 H 3.3639 3.3229 9.0787 0
M  V30 155 H 4.7402 1.3407 8.5853 0
M  V30 156 H 5.4031 -0.4676 6.9653 0
M  V30 157 H 4.0691 -0.4377 3.0623 0
M  V30 158 H 2.6476 1.5898 3.4713 0
M  V30 159 C -0.2615 4.1484 3.1334 0
M  V30 160 C -0.3667 3.4689 1.9137 0
M  V30 161 C -1.2921 3.8677 0.9761 0
M  V30 162 C -2.1315 4.9578 1.2338 0
M  V30 163 C -2.0272 5.6369 2.4539 0
M  V30 164 C -1.1038 5.2358 3.3938 0
M  V30 165 H 0.2862 2.6340 1.7148 0
M  V30 166 H -1.3687 3.3536 0.0317 0
M  V30 167 H -2.6743 6.4784 2.6520 0
M  V30 168 H -1.0223 5.7605 4.3339 0
M  V30 169 C -3.0553 5.3942 0.2655 0
M  V30 170 C -3.8286 5.7844 -0.5800 0
M  V30 171 C -4.6755 6.3355 -1.5582 0
M  V30 172 C -5.1805 7.6130 -1.3886 0
M  V30 173 C -5.9635 8.2163 -2.3774 0
M  V30 174 C -6.2393 7.5665 -3.5551 0
M  V30 175 C -5.7564 6.2629 -3.7674 0
M  V30 176 C -5.9895 5.5438 -4.9617 0
M  V30 177 C -5.5098 4.2734 -5.0947 0
M  V30 178 N -4.8325 3.6518 -4.0977 0
M  V30 179 C -4.5737 4.2980 -2.9780 0
M  V30 180 C -4.9871 5.6204 -2.7539 0
M  V30 181 H -4.9548 8.1549 -0.4830 0
M  V30 182 H -6.3404 9.2139 -2.2105 0
M  V30 183 H -6.8242 8.0442 -4.3254 0
M  V30 184 H -6.5444 6.0099 -5.7602 0
M  V30 185 H -5.6517 3.7010 -6.0095 0
M  V30 186 H -4.0245 3.7621 -2.2069 0
M  V30 END ATOM
M  V30 BEGIN BOND
M  V30 1 3 3 4
M  V30 2 1 4 5
M  V30 3 2 5 6
M  V30 4 1 6 7
M  V30 5 2 7 8
M  V30 6 1 8 9
M  V30 7 2 9 10
M  V30 8 1 10 11
M  V30 9 2 11 12
M  V30 10 1 12 13
M  V30 11 2 13 14
M  V30 12 1 14 5
M  V30 13 1 14 9
M  V30 14 1 6 15
M  V30 15 1 7 16
M  V30 16 1 8 17
M  V30 17 1 10 18
M  V30 18 1 12 19
M  V30 19 1 13 20
M  V30 20 2 21 22
M  V30 21 1 22 23
M  V30 22 2 23 24
M  V30 23 1 24 25
M  V30 24 2 25 26
M  V30 25 1 26 21
M  V30 26 1 22 27
M  V30 27 1 23 28
M  V30 28 1 25 29
M  V30 29 1 26 30
M  V30 30 3 31 32
M  V30 31 1 32 33
M  V30 32 2 33 34
M  V30 33 1 34 35
M  V30 34 2 35 36
M  V30 35 1 36 37
M  V30 36 2 37 38
M  V30 37 1 38 39
M  V30 38 2 39 40
M  V30 39 1 40 41
M  V30 40 2 41 42
M  V30 41 1 42 33
M  V30 42 1 42 37
M  V30 43 1 34 43
M  V30 44 1 35 44
M  V30 45 1 36 45
M  V30 46 1 38 46
M  V30 47 1 39 47
M  V30 48 1 41 48
M  V30 49 1 3 21
M  V30 50 1 24 31
M  V30 51 3 49 50
M  V30 52 1 50 51
M  V30 53 2 51 52
M  V30 54 1 52 53
M  V30 55 2 53 54
M  V30 56 1 54 55
M  V30 57 2 55 56
M  V30 58 1 56 57
M  V30 59 2 57 58
M  V30 60 1 58 59
M  V30 61 2 59 60
M  V30 62 1 60 51
M  V30 63 1 60 55
M  V30 64 1 52 61
M  V30 65 1 53 62
M  V30 66 1 54 63
M  V30 67 1 56 64
M  V30 68 1 58 65
M  V30 69 1 59 66
M  V30 70 2 67 68
M  V30 71 1 68 69
M  V30 72 2 69 70
M  V30 73 1 70 71
M  V30 74 2 71 72
M  V30 75 1 72 67
M  V30 76 1 68 73
M  V30 77 1 69 74
M  V30 78 1 71 75
M  V30 79 1 72 76
M  V30 80 3 77 78
M  V30 81 1 78 79
M  V30 82 2 79 80
M  V30 83 1 80 81
M  V30 84 2 81 82
M  V30 85 1 82 83
M  V30 86 2 83 84
M  V30 87 1 84 85
M  V30 88 2 85 86
M  V30 89 1 86 87
M  V30 90 2 87 88
M  V30 91 1 88 79
M  V30 92 1 88 83
M  V30 93 1 80 89
M  V30 94 1 81 90
M  V30 95 1 82 91
M  V30 96 1 84 92
M  V30 97 1 85 93
M  V30 98 1 87 94
M  V30 99 1 49 67
M  V30 100 1 70 77
M  V30 101 3 95 96
M  V30 102 1 96 97
M  V30 103 2 97 98
M  V30 104 1 98 99
M  V30 105 2 99 100
M  V30 106 1 100 101
M  V30 107 2 101 102
M  V30 108 1 102 103
M  V30 109 2 103 104
M  V30 110 1 104 105
M  V30 111 2 105 106
M  V30 112 1 106 97
M  V30 113 1 106 101
M  V30 114 1 98 107
M  V30 115 1 99 108
M  V30 116 1 100 109
M  V30 117 1 102 110
M  V30 118 1 104 111
M  V30 119 1 105 112
M  V30 120 2 113 114
M  V30 121 1 114 115
M  V30 122 2 115 116
M  V30 123 1 116 117
M  V30 124 2 117 118
M  V30 125 1 118 113
M  V30 126 1 114 119
M  V30 127 1 115 120
M  V30 128 1 117 121
M  V30 129 1 118 122
M  V30 130 3 123 124
M  V30 131 1 124 125
M  V30 132 2 125 126
M  V30 133 1 126 127
M  V30 134 2 127 128
M  V30 135 1 128 129
M  V30 136 2 129 130
M  V30 137 1 130 131
M  V30 138 2 131 132
M  V30 139 1 132 133
M  V30 140 2 133 134
M  V30 141 1 134 125
M  V30 142 1 134 129
M  V30 143 1 126 135
M  V30 144 1 127 136
M  V30 145 1 128 137
M  V30 146 1 130 138
M  V30 147 1 131 139
M  V30 148 1 133 140
M  V30 149 1 95 113
M  V30 150 1 116 123
M  V30 151 3 141 142
M  V30 152 1 142 143
M  V30 153 2 143 144
M  V30 154 1 144 145
M  V30 155 2 145 146
M  V30 156 1 146 147
M  V30 157 2 147 148
M  V30 158 1 148 149
M  V30 159 2 149 150
M  V30 160 1 150 151
M  V30 161 2 151 152
M  V30 162 1 152 143
M  V30 163 1 152 147
M  V30 164 1 144 153
M  V30 165 1 145 154
M  V30 166 1 146 155
M  V30 167 1 148 156
M  V30 168 1 150 157
M  V30 169 1 151 158
M  V30 170 2 159 160
M  V30 171 1 160 161
M  V30 172 2 161 162
M  V30 173 1 162 163
M  V30 174 2 163 164
M  V30 175 1 164 159
M  V30 176 1 160 165
M  V30 177 1 161 166
M  V30 178 1 163 167
M  V30 179 1 164 168
M  V30 180 3 169 170
M  V30 181 1 170 171
M  V30 182 2 171 172
M  V30 183 1 172 173
M  V30 184 2 173 174
M  V30 185 1 174 175
M  V30 186 2 175 176
M  V30 187 1 176 177
M  V30 188 2 177 178
M  V30 189 1 178 179
M  V30 190 2 179 180
M  V30 191 1 180 171
M  V30 192 1 180 175
M  V30 193 1 172 181
M  V30 194 1 173 182
M  V30 195 1 174 183
M  V30 196 1 176 184
M  V30 197 1 177 185
M  V30 198 1 179 186
M  V30 199 1 141 159
M  V30 200 1 162 169
M  V30 201 9 40 1
M  V30 202 9 86 1
M  V30 203 9 103 1
M  V30 204 9 149 1
M  V30 205 9 11 2
M  V30 206 9 57 2
M  V30 207 9 132 2
M  V30 208 9 178 2
M  V30 END BOND
M  V30 END CTAB
M  END

$$$$
