
     RDKit          3D

  0  0  0  0  0  0  0  0  0  0999 V3000
M  V30 BEGIN CTAB
M  V30 COUNTS 186 208 0 0 0
M  V30 BEGIN ATOM
M  V30 1 Pd 2.6699 -6.3890 -0.8221 0 CHG=2
M  V30 2 Pd -3.0156 6.1698 0.8307 0 CHG=2
M  V30 3 C 3.9191 3.5711 -1.3163 0
M  V30 4 C 3.4180 4.6671 -1.2088 0
M  V30 5 C 2.7835 5.9204 -1.1255 0
M  V30 6 C 3.3599 7.0528 -1.6748 0
M  V30 7 C 2.6993 8.2862 -1.6427 0
M  V30 8 C 1.4512 8.4053 -1.0867 0
M  V30 9 C 0.8306 7.2758 -0.5118 0
M  V30 10 C -0.4677 7.3197 0.0314 0
M  V30 11 N -1.0481 6.2675 0.5684 0
M  V30 12 C -0.3775 5.0908 0.6539 0
M  V30 13 C 0.8745 4.9349 0.1320 0
M  V30 14 C 1.5080 6.0233 -0.5012 0
M  V30 15 H 4.3313 6.9804 -2.1399 0
M  V30 16 H 3.1818 9.1483 -2.0768 0
M  V30 17 H 0.9373 9.3532 -1.0834 0
M  V30 18 H -1.0388 8.2446 0.0120 0
M  V30 19 H -0.9047 4.2859 1.1624 0
M  V30 20 H 1.3896 3.9897 0.1897 0
M  V30 21 C 4.4815 2.2869 -1.4441 0
M  V30 22 C 5.7324 2.1176 -2.0489 0
M  V30 23 C 6.2759 0.8583 -2.1752 0
M  V30 24 C 5.5791 -0.2606 -1.7024 0
M  V30 25 C 4.3261 -0.0909 -1.1023 0
M  V30 26 C 3.7844 1.1678 -0.9725 0
M  V30 27 H 6.2707 2.9805 -2.4119 0
M  V30 28 H 7.2429 0.7273 -2.6375 0
M  V30 29 H 3.7970 -0.9537 -0.7309 0
M  V30 30 H 2.8225 1.3021 -0.5039 0
M  V30 31 C 6.1555 -1.5405 -1.8059 0
M  V30 32 C 6.6607 -2.6388 -1.8674 0
M  V30 33 C 7.3324 -3.8743 -1.8809 0
M  V30 34 C 8.6935 -3.9134 -2.1291 0
M  V30 35 C 9.4023 -5.1172 -2.0750 0
M  V30 36 C 8.7726 -6.2947 -1.7552 0
M  V30 37 C 7.3887 -6.3055 -1.5056 0
M  V30 38 C 6.6816 -7.4782 -1.1558 0
M  V30 39 C 5.3343 -7.4226 -0.9473 0
M  V30 40 N 4.6301 -6.2731 -1.0939 0
M  V30 41 C 5.2573 -5.1532 -1.3951 0
M  V30 42 C 6.6455 -5.0923 -1.5922 0
M  V30 43 H 9.2162 -2.9967 -2.3560 0
M  V30 44 H 10.4631 -5.1097 -2.2745 0
M  V30 45 H 9.3270 -7.2178 -1.6913 0
M  V30 46 H 7.2172 -8.4085 -1.0546 0
M  V30 47 H 4.7639 -8.3023 -0.6544 0
M  V30 48 H 4.6534 -4.2543 -1.4992 0
M  V30 49 C -1.0316 1.8576 -5.2518 0
M  V30 50 C -1.4773 2.9731 -5.1080 0
M  V30 51 C -1.9443 4.2847 -4.8985 0
M  V30 52 C -1.9616 5.2122 -5.9255 0
M  V30 53 C -2.3676 6.5323 -5.6981 0
M  V30 54 C -2.7412 6.9511 -4.4469 0
M  V30 55 C -2.7465 6.0338 -3.3745 0
M  V30 56 C -3.0789 6.4092 -2.0588 0
M  V30 57 N -3.0904 5.5541 -1.0579 0
M  V30 58 C -2.8154 4.2442 -1.2803 0
M  V30 59 C -2.4516 3.7828 -2.5130 0
M  V30 60 C -2.3728 4.6782 -3.5989 0
M  V30 61 H -1.6483 4.9135 -6.9143 0
M  V30 62 H -2.3703 7.2269 -6.5238 0
M  V30 63 H -3.0327 7.9745 -4.2724 0
M  V30 64 H -3.3330 7.4419 -1.8318 0
M  V30 65 H -2.9076 3.5903 -0.4160 0
M  V30 66 H -2.2203 2.7418 -2.6720 0
M  V30 67 C -0.5163 0.5542 -5.3889 0
M  V30 68 C -0.4807 -0.0694 -6.6411 0
M  V30 69 C 0.0042 -1.3531 -6.7607 0
M  V30 70 C 0.4696 -2.0396 -5.6322 0
M  V30 71 C 0.4531 -1.4067 -4.3839 0
M  V30 72 C -0.0374 -0.1264 -4.2628 0
M  V30 73 H -0.8439 0.4576 -7.5108 0
M  V30 74 H 0.0229 -1.8390 -7.7249 0
M  V30 75 H 0.8243 -1.9323 -3.5190 0
M  V30 76 H -0.0554 0.3640 -3.3025 0
M  V30 77 C 0.9150 -3.3685 -5.7624 0
M  V30 78 C 1.2554 -4.5246 -5.8769 0
M  V30 79 C 1.5666 -5.8808 -6.0802 0
M  V30 80 C 1.4702 -6.4223 -7.3507 0
M  V30 81 C 1.7071 -7.7815 -7.5762 0
M  V30 82 C 2.0243 -8.6251 -6.5402 0
M  V30 83 C 2.1398 -8.1191 -5.2332 0
M  V30 84 C 2.4447 -8.9350 -4.1200 0
M  V30 85 C 2.5569 -8.3779 -2.8797 0
M  V30 86 N 2.4119 -7.0456 -2.6736 0
M  V30 87 C 2.1067 -6.2543 -3.6829 0
M  V30 88 C 1.9344 -6.7291 -4.9923 0
M  V30 89 H 1.1989 -5.7844 -8.1780 0
M  V30 90 H 1.6242 -8.1679 -8.5804 0
M  V30 91 H 2.1858 -9.6773 -6.7145 0
M  V30 92 H 2.5826 -9.9947 -4.2631 0
M  V30 93 H 2.7682 -8.9805 -1.9983 0
M  V30 94 H 1.9965 -5.1929 -3.4703 0
M  V30 95 C -4.1831 -3.7983 1.5978 0
M  V30 96 C -3.6702 -4.8901 1.5046 0
M  V30 97 C -3.0206 -6.1370 1.4322 0
M  V30 98 C -3.5500 -7.2578 2.0476 0
M  V30 99 C -2.8699 -8.4811 2.0263 0
M  V30 100 C -1.6496 -8.6006 1.4124 0
M  V30 101 C -1.0796 -7.4835 0.7648 0
M  V30 102 C 0.1873 -7.5284 0.1522 0
M  V30 103 N 0.7183 -6.4896 -0.4576 0
M  V30 104 C 0.0229 -5.3282 -0.5511 0
M  V30 105 C -1.2002 -5.1707 0.0350 0
M  V30 106 C -1.7779 -6.2426 0.7453 0
M  V30 107 H -4.4977 -7.1836 2.5590 0
M  V30 108 H -3.3148 -9.3341 2.5149 0
M  V30 109 H -1.1196 -9.5396 1.4170 0
M  V30 110 H 0.7745 -8.4434 0.1758 0
M  V30 111 H 0.5020 -4.5376 -1.1244 0
M  V30 112 H -1.7347 -4.2369 -0.0340 0
M  V30 113 C -4.7560 -2.5153 1.6919 0
M  V30 114 C -3.9510 -1.3807 1.5330 0
M  V30 115 C -4.5048 -0.1226 1.6066 0
M  V30 116 C -5.8774 0.0306 1.8330 0
M  V30 117 C -6.6797 -1.1043 2.0068 0
M  V30 118 C -6.1248 -2.3632 1.9399 0
M  V30 119 H -2.8946 -1.5039 1.3551 0
M  V30 120 H -3.8871 0.7525 1.4866 0
M  V30 121 H -7.7375 -0.9859 2.1883 0
M  V30 122 H -6.7447 -3.2380 2.0690 0
M  V30 123 C -6.4678 1.3082 1.8541 0
M  V30 124 C -6.9914 2.3994 1.8311 0
M  V30 125 C -7.6829 3.6211 1.7484 0
M  V30 126 C -9.0574 3.6423 1.9122 0
M  V30 127 C -9.7833 4.8286 1.7696 0
M  V30 128 C -9.1564 6.0059 1.4435 0
M  V30 129 C -7.7608 6.0344 1.2735 0
M  V30 130 C -7.0561 7.2074 0.9197 0
M  V30 131 C -5.6989 7.1699 0.7849 0
M  V30 132 N -4.9847 6.0391 1.0071 0
M  V30 133 C -5.6075 4.9196 1.3186 0
M  V30 134 C -7.0026 4.8401 1.4488 0
M  V30 135 H -9.5762 2.7251 2.1453 0
M  V30 136 H -10.8537 4.8071 1.9062 0
M  V30 137 H -9.7222 6.9150 1.3135 0
M  V30 138 H -7.6014 8.1232 0.7560 0
M  V30 139 H -5.1281 8.0493 0.4916 0
M  V30 140 H -4.9945 4.0361 1.4845 0
M  V30 141 C 0.9433 -1.9494 5.2401 0
M  V30 142 C 1.4058 -3.0592 5.1042 0
M  V30 143 C 1.8877 -4.3666 4.9063 0
M  V30 144 C 1.9780 -5.2632 5.9572 0
M  V30 145 C 2.4010 -6.5805 5.7467 0
M  V30 146 C 2.7167 -7.0292 4.4898 0
M  V30 147 C 2.6423 -6.1454 3.3921 0
M  V30 148 C 2.9058 -6.5552 2.0711 0
M  V30 149 N 2.8376 -5.7323 1.0461 0
M  V30 150 C 2.5448 -4.4220 1.2443 0
M  V30 151 C 2.2449 -3.9296 2.4818 0
M  V30 152 C 2.2525 -4.7913 3.5974 0
M  V30 153 H 1.7119 -4.9412 6.9526 0
M  V30 154 H 2.4636 -7.2498 6.5909 0
M  V30 155 H 3.0216 -8.0510 4.3296 0
M  V30 156 H 3.1703 -7.5884 1.8602 0
M  V30 157 H 2.5644 -3.7967 0.3537 0
M  V30 158 H 1.9957 -2.8904 2.6240 0
M  V30 159 C 0.3946 -0.6604 5.3784 0
M  V30 160 C 0.2215 0.1510 4.2505 0
M  V30 161 C -0.3221 1.4089 4.3788 0
M  V30 162 C -0.7019 1.8873 5.6382 0
M  V30 163 C -0.5299 1.0757 6.7662 0
M  V30 164 C 0.0107 -0.1845 6.6376 0
M  V30 165 H 0.5218 -0.2173 3.2823 0
M  V30 166 H -0.4470 2.0404 3.5140 0
M  V30 167 H -0.8222 1.4455 7.7379 0
M  V30 168 H 0.1448 -0.8096 7.5078 0
M  V30 169 C -1.2249 3.1862 5.7824 0
M  V30 170 C -1.6477 4.3135 5.9069 0
M  V30 171 C -2.0548 5.6426 6.1206 0
M  V30 172 C -2.0444 6.1665 7.4017 0
M  V30 173 C -2.3715 7.5054 7.6362 0
M  V30 174 C -2.6946 8.3462 6.5998 0
M  V30 175 C -2.7286 7.8556 5.2823 0
M  V30 176 C -3.0371 8.6696 4.1688 0
M  V30 177 C -3.0733 8.1250 2.9182 0
M  V30 178 N -2.8506 6.8049 2.7013 0
M  V30 179 C -2.5355 6.0180 3.7111 0
M  V30 180 C -2.4329 6.4841 5.0310 0
M  V30 181 H -1.7673 5.5326 8.2300 0
M  V30 182 H -2.3529 7.8793 8.6486 0
M  V30 183 H -2.9236 9.3844 6.7821 0
M  V30 184 H -3.2391 9.7180 4.3195 0
M  V30 185 H -3.2847 8.7283 2.0373 0
M  V30 186 H -2.3616 4.9670 3.4907 0
M  V30 END ATOM
M  V30 BEGIN BOND
M  V30 1 3 3 4
M  V30 2 1 4 5
M  V30 3 2 5 6
M  V30 4 1 6 7
M  V30 5 2 7 8
M  V30 6 1 8 9
M  V30 7 2 9 10
M  V30 8 1 10 11
M  V30 9 2 11 12
M  V30 10 1 12 13
M  V30 11 2 13 14
M  V30 12 1 14 5
M  V30 13 1 14 9
M  V30 14 1 6 15
M  V30 15 1 7 16
M  V30 16 1 8 17
M  V30 17 1 10 18
M  V30 18 1 12 19
M  V30 19 1 13 20
M  V30 20 2 21 22
M  V30 21 1 22 23
M  V30 22 2 23 24
M  V30 23 1 24 25
M  V30 24 2 25 26
M  V30 25 1 26 21
M  V30 26 1 22 27
M  V30 27 1 23 28
M  V30 28 1 25 29
M  V30 29 1 26 30
M  V30 30 3 31 32
M  V30 31 1 32 33
M  V30 32 2 33 34
M  V30 33 1 34 35
M  V30 34 2 35 36
M  V30 35 1 36 37
M  V30 36 2 37 38
M  V30 37 1 38 39
M  V30 38 2 39 40
M  V30 39 1 40 41
M  V30 40 2 41 42
M  V30 41 1 42 33
M  V30 42 1 42 37
M  V30 43 1 34 43
M  V30 44 1 35 44
M  V30 45 1 36 45
M  V30 46 1 38 46
M  V30 47 1 39 47
M  V30 48 1 41 48
M  V30 49 1 3 21
M  V30 50 1 24 31
M  V30 51 3 49 50
M  V30 52 1 50 51
M  V30 53 2 51 52
M  V30 54 1 52 53
M  V30 55 2 53 54
M  V30 56 1 54 55
M  V30 57 2 55 56
M  V30 58 1 56 57
M  V30 59 2 57 58
M  V30 60 1 58 59
M  V30 61 2 59 60
M  V30 62 1 60 51
M  V30 63 1 60 55
M  V30 64 1 52 61
M  V30 65 1 53 62
M  V30 66 1 54 63
M  V30 67 1 56 64
M  V30 68 1 58 65
M  V30 69 1 59 66
M  V30 70 2 67 68
M  V30 71 1 68 69
M  V30 72 2 69 70
M  V30 73 1 70 71
M  V30 74 2 71 72
M  V30 75 1 72 67
M  V30 76 1 68 73
M  V30 77 1 69 74
M  V30 78 1 71 75
M  V30 79 1 72 76
M  V30 80 3 77 78
M  V30 81 1 78 79
M  V30 82 2 79 80
M  V30 83 1 80 81
M  V30 84 2 81 82
M  V30 85 1 82 83
M  V30 86 2 83 84
M  V30 87 1 84 85
M  V30 88 2 85 86
M  V30 89 1 86 87
M  V30 90 2 87 88
M  V30 91 1 88 79
M  V30 92 1 88 83
M  V30 93 1 80 89
M  V30 94 1 81 90
M  V30 95 1 82 91
M  V30 96 1 84 92
M  V30 97 1 85 93
M  V30 98 1 87 94
M  V30 99 1 49 67
M  V30 100 1 70 77
M  V30 101 3 95 96
M  V30 102 1 96 97
M  V30 103 2 97 98
M  V30 104 1 98 99
M  V30 105 2 99 100
M  V30 106 1 100 101
M  V30 107 2 101 102
M  V30 108 1 102 103
M  V30 109 2 103 104
M  V30 110 1 104 105
M  V30 111 2 105 106
M  V30 112 1 106 97
M  V30 113 1 106 101
M  V30 114 1 98 107
M  V30 115 1 99 108
M  V30 116 1 100 109
M  V30 117 1 102 110
M  V30 118 1 104 111
M  V30 119 1 105 112
M  V30 120 2 113 114
M  V30 121 1 114 115
M  V30 122 2 115 116
M  V30 123 1 116 117
M  V30 124 2 117 118
M  V30 125 1 118 113
M  V30 126 1 114 119
M  V30 127 1 115 120
M  V30 128 1 117 121
M  V30 129 1 118 122
M  V30 130 3 123 124
M  V30 131 1 124 125
M  V30 132 2 125 126
M  V30 133 1 126 127
M  V30 134 2 127 128
M  V30 135 1 128 129
M  V30 136 2 129 130
M  V30 137 1 130 131
M  V30 138 2 131 132
M  V30 139 1 132 133
M  V30 140 2 133 134
M  V30 141 1 134 125
M  V30 142 1 134 129
M  V30 143 1 126 135
M  V30 144 1 127 136
M  V30 145 1 128 137
M  V30 146 1 130 138
M  V30 147 1 131 139
M  V30 148 1 133 140
M  V30 149 1 95 113
M  V30 150 1 116 123
M  V30 151 3 141 142
M  V30 152 1 142 143
M  V30 153 2 143 144
M  V30 154 1 144 145
M  V30 155 2 145 146
M  V30 156 1 146 147
M  V30 157 2 147 148
M  V30 158 1 148 149
M  V30 159 2 149 150
M  V30 160 1 150 151
M  V30 161 2 151 152
M  V30 162 1 152 143
M  V30 163 1 152 147
M  V30 164 1 144 153
M  V30 165 1 145 154
M  V30 166 1 146 155
M  V30 167 1 148 156
M  V30 168 1 150 157
M  V30 169 1 151 158
M  V30 170 2 159 160
M  V30 171 1 160 161
M  V30 172 2 161 162
M  V30 173 1 162 163
M  V30 174 2 163 164
M  V30 175 1 164 159
M  V30 176 1 160 165
M  V30 177 1 161 166
M  V30 178 1 163 167
M  V30 179 1 164 168
M  V30 180 3 169 170
M  V30 181 1 170 171
M  V30 182 2 171 172
M  V30 183 1 172 173
M  V30 184 2 173 174
M  V30 185 1 174 175
M  V30 186 2 175 176
M  V30 187 1 176 177
M  V30 188 2 177 178
M  V30 189 1 178 179
M  V30 190 2 179 180
M  V30 191 1 180 171
M  V30 192 1 180 175
M  V30 193 1 172 181
M  V30 194 1 173 182
M  V30 195 1 174 183
M  V30 196 1 176 184
M  V30 197 1 177 185
M  V30 198 1 179 186
M  V30 199 1 141 159
M  V30 200 1 162 169
M  V30 201 9 40 1
M  V30 202 9 86 1
M  V30 203 9 103 1
M  V30 204 9 149 1
M  V30 205 9 11 2
M  V30 206 9 57 2
M  V30 207 9 132 2
M  V30 208 9 178 2
M  V30 END BOND
M  V30 END CTAB
M  END

$$$$
