
     RDKit          3D

  0  0  0  0  0  0  0  0  0  0999 V3000
M  V30 BEGIN CTAB
M  V30 COUNTS 186 208 0 0 0
M  V30 BEGIN ATOM
M  V30 1 Pd 0.2726 6.9530 -0.9219 0 CHG=2
M  V30 2 Pd 0.3529 -6.8651 0.4314 0 CHG=2
M  V30 3 C -0.1750 -1.9782 -5.5092 0
M  V30 4 C -0.1321 -3.1824 -5.4004 0
M  V30 5 C -0.0233 -4.5760 -5.2374 0
M  V30 6 C 0.2173 -5.4067 -6.3183 0
M  V30 7 C 0.3843 -6.7854 -6.1450 0
M  V30 8 C 0.3376 -7.3516 -4.8967 0
M  V30 9 C 0.0900 -6.5402 -3.7691 0
M  V30 10 C 0.0774 -7.0508 -2.4569 0
M  V30 11 N -0.1537 -6.2958 -1.4039 0
M  V30 12 C -0.4356 -4.9776 -1.5612 0
M  V30 13 C -0.4204 -4.3785 -2.7879 0
M  V30 14 C -0.1220 -5.1418 -3.9347 0
M  V30 15 H 0.2826 -4.9821 -7.3086 0
M  V30 16 H 0.5655 -7.4023 -7.0117 0
M  V30 17 H 0.4881 -8.4114 -4.7661 0
M  V30 18 H 0.2715 -8.1054 -2.2775 0
M  V30 19 H -0.6713 -4.4357 -0.6473 0
M  V30 20 H -0.6278 -3.3264 -2.8979 0
M  V30 21 C -0.2141 -0.5749 -5.6158 0
M  V30 22 C -0.1213 0.0438 -6.8679 0
M  V30 23 C -0.1557 1.4173 -6.9659 0
M  V30 24 C -0.2805 2.2031 -5.8136 0
M  V30 25 C -0.3683 1.5837 -4.5615 0
M  V30 26 C -0.3377 0.2111 -4.4637 0
M  V30 27 H -0.0268 -0.5620 -7.7568 0
M  V30 28 H -0.0888 1.8953 -7.9318 0
M  V30 29 H -0.4739 2.1917 -3.6776 0
M  V30 30 H -0.4126 -0.2690 -3.5009 0
M  V30 31 C -0.3477 3.6046 -5.9249 0
M  V30 32 C -0.4344 4.8083 -6.0193 0
M  V30 33 C -0.6227 6.1909 -6.1946 0
M  V30 34 C -0.9069 6.6912 -7.4535 0
M  V30 35 C -1.1731 8.0500 -7.6465 0
M  V30 36 C -1.1794 8.9263 -6.5895 0
M  V30 37 C -0.8857 8.4655 -5.2937 0
M  V30 38 C -0.8905 9.3095 -4.1601 0
M  V30 39 C -0.5756 8.8018 -2.9334 0
M  V30 40 N -0.2233 7.5037 -2.7606 0
M  V30 41 C -0.2308 6.6792 -3.7893 0
M  V30 42 C -0.5768 7.0896 -5.0861 0
M  V30 43 H -0.9348 6.0175 -8.2963 0
M  V30 44 H -1.3906 8.4047 -8.6425 0
M  V30 45 H -1.4083 9.9699 -6.7386 0
M  V30 46 H -1.1466 10.3504 -4.2767 0
M  V30 47 H -0.5924 9.4192 -2.0371 0
M  V30 48 H 0.0552 5.6460 -3.6042 0
M  V30 49 C 5.4122 -1.6211 -2.1048 0
M  V30 50 C 5.3997 -2.8290 -2.0372 0
M  V30 51 C 5.3259 -4.2343 -1.9920 0
M  V30 52 C 6.2417 -5.0222 -2.6669 0
M  V30 53 C 6.1280 -6.4174 -2.6709 0
M  V30 54 C 5.0946 -7.0439 -2.0230 0
M  V30 55 C 4.1448 -6.2769 -1.3150 0
M  V30 56 C 3.0380 -6.8549 -0.6645 0
M  V30 57 N 2.1541 -6.1421 0.0016 0
M  V30 58 C 2.3124 -4.7995 0.1176 0
M  V30 59 C 3.3342 -4.1377 -0.5008 0
M  V30 60 C 4.2696 -4.8591 -1.2701 0
M  V30 61 H 7.0503 -4.5517 -3.2054 0
M  V30 62 H 6.8623 -6.9992 -3.2062 0
M  V30 63 H 4.9993 -8.1177 -2.0469 0
M  V30 64 H 2.8796 -7.9300 -0.7044 0
M  V30 65 H 1.5764 -4.2903 0.7359 0
M  V30 66 H 3.4388 -3.0681 -0.4131 0
M  V30 67 C 5.4003 -0.2143 -2.1677 0
M  V30 68 C 6.5715 0.4955 -2.4548 0
M  V30 69 C 6.5542 1.8725 -2.4914 0
M  V30 70 C 5.3643 2.5698 -2.2476 0
M  V30 71 C 4.1891 1.8578 -1.9818 0
M  V30 72 C 4.2074 0.4821 -1.9385 0
M  V30 73 H 7.4903 -0.0414 -2.6379 0
M  V30 74 H 7.4595 2.4216 -2.7029 0
M  V30 75 H 3.2716 2.3964 -1.8077 0
M  V30 76 H 3.3051 -0.0708 -1.7306 0
M  V30 77 C 5.3737 3.9774 -2.2389 0
M  V30 78 C 5.4008 5.1867 -2.1909 0
M  V30 79 C 5.5297 6.5829 -2.0839 0
M  V30 80 C 6.7642 7.1743 -2.2906 0
M  V30 81 C 6.9419 8.5512 -2.1263 0
M  V30 82 C 5.9006 9.3566 -1.7360 0
M  V30 83 C 4.6265 8.8016 -1.5204 0
M  V30 84 C 3.5173 9.5702 -1.1001 0
M  V30 85 C 2.3039 8.9719 -0.9234 0
M  V30 86 N 2.1105 7.6519 -1.1656 0
M  V30 87 C 3.1250 6.8972 -1.5390 0
M  V30 88 C 4.4213 7.4046 -1.7166 0
M  V30 89 H 7.6041 6.5589 -2.5747 0
M  V30 90 H 7.9185 8.9772 -2.2978 0
M  V30 91 H 6.0461 10.4154 -1.5898 0
M  V30 92 H 3.6432 10.6256 -0.9193 0
M  V30 93 H 1.4351 9.5298 -0.5790 0
M  V30 94 H 2.9241 5.8430 -1.7186 0
M  V30 95 C 0.5177 2.0758 5.0516 0
M  V30 96 C 0.4570 3.2787 4.9365 0
M  V30 97 C 0.3320 4.6701 4.7624 0
M  V30 98 C 0.0121 5.4993 5.8231 0
M  V30 99 C -0.1727 6.8739 5.6335 0
M  V30 100 C -0.0620 7.4366 4.3880 0
M  V30 101 C 0.2726 6.6269 3.2814 0
M  V30 102 C 0.3612 7.1345 1.9712 0
M  V30 103 N 0.6789 6.3824 0.9385 0
M  V30 104 C 0.9783 5.0714 1.1193 0
M  V30 105 C 0.8927 4.4744 2.3443 0
M  V30 106 C 0.5012 5.2335 3.4658 0
M  V30 107 H -0.1052 5.0768 6.8094 0
M  V30 108 H -0.4191 7.4896 6.4848 0
M  V30 109 H -0.2262 8.4924 4.2434 0
M  V30 110 H 0.1567 8.1845 1.7759 0
M  V30 111 H 1.2926 4.5331 0.2279 0
M  V30 112 H 1.1183 3.4277 2.4707 0
M  V30 113 C 0.5920 0.6733 5.1553 0
M  V30 114 C 0.3850 -0.1200 4.0203 0
M  V30 115 C 0.4722 -1.4909 4.1081 0
M  V30 116 C 0.7759 -2.1006 5.3308 0
M  V30 117 C 0.9680 -1.3074 6.4691 0
M  V30 118 C 0.8744 0.0642 6.3831 0
M  V30 119 H 0.1548 0.3544 3.0797 0
M  V30 120 H 0.3113 -2.1041 3.2364 0
M  V30 121 H 1.1956 -1.7781 7.4139 0
M  V30 122 H 1.0276 0.6755 7.2600 0
M  V30 123 C 0.9245 -3.4971 5.4244 0
M  V30 124 C 1.0968 -4.6926 5.5059 0
M  V30 125 C 1.3821 -6.0601 5.6674 0
M  V30 126 C 1.7501 -6.5404 6.9125 0
M  V30 127 C 2.1054 -7.8804 7.0933 0
M  V30 128 C 2.1185 -8.7569 6.0365 0
M  V30 129 C 1.7461 -8.3160 4.7541 0
M  V30 130 C 1.7555 -9.1608 3.6210 0
M  V30 131 C 1.3679 -8.6733 2.4070 0
M  V30 132 N 0.9411 -7.3964 2.2473 0
M  V30 133 C 0.9374 -6.5717 3.2760 0
M  V30 134 C 1.3487 -6.9609 4.5601 0
M  V30 135 H 1.7708 -5.8655 7.7544 0
M  V30 136 H 2.3853 -8.2195 8.0790 0
M  V30 137 H 2.4135 -9.7851 6.1756 0
M  V30 138 H 2.0736 -10.1856 3.7277 0
M  V30 139 H 1.3849 -9.2903 1.5103 0
M  V30 140 H 0.5902 -5.5556 3.1007 0
M  V30 141 C -4.8708 1.6743 1.3411 0
M  V30 142 C -4.8721 2.8815 1.2600 0
M  V30 143 C -4.8150 4.2866 1.2048 0
M  V30 144 C -5.7819 5.0671 1.8150 0
M  V30 145 C -5.6904 6.4636 1.8095 0
M  V30 146 C -4.6285 7.1000 1.2196 0
M  V30 147 C -3.6237 6.3409 0.5826 0
M  V30 148 C -2.4844 6.9294 0.0012 0
M  V30 149 N -1.5465 6.2232 -0.5940 0
M  V30 150 C -1.6757 4.8768 -0.7036 0
M  V30 151 C -2.7276 4.2060 -0.1491 0
M  V30 152 C -3.7246 4.9210 0.5451 0
M  V30 153 H -6.6154 4.5893 2.3072 0
M  V30 154 H -6.4656 7.0394 2.2913 0
M  V30 155 H -4.5515 8.1755 1.2367 0
M  V30 156 H -2.3448 8.0070 0.0383 0
M  V30 157 H -0.8869 4.3732 -1.2591 0
M  V30 158 H -2.8098 3.1339 -0.2270 0
M  V30 159 C -4.8468 0.2701 1.4383 0
M  V30 160 C -3.7735 -0.4501 0.8997 0
M  V30 161 C -3.7409 -1.8225 0.9991 0
M  V30 162 C -4.7822 -2.5079 1.6355 0
M  V30 163 C -5.8551 -1.7879 2.1751 0
M  V30 164 C -5.8862 -0.4143 2.0791 0
M  V30 165 H -2.9762 0.0799 0.4034 0
M  V30 166 H -2.9214 -2.3811 0.5763 0
M  V30 167 H -6.6587 -2.3171 2.6653 0
M  V30 168 H -6.7144 0.1407 2.4937 0
M  V30 169 C -4.7738 -3.9137 1.7093 0
M  V30 170 C -4.7776 -5.1235 1.7460 0
M  V30 171 C -4.8786 -6.5262 1.7349 0
M  V30 172 C -6.0897 -7.1298 2.0260 0
M  V30 173 C -6.2407 -8.5176 1.9500 0
M  V30 174 C -5.1966 -9.3224 1.5656 0
M  V30 175 C -3.9444 -8.7545 1.2704 0
M  V30 176 C -2.8334 -9.5224 0.8537 0
M  V30 177 C -1.6399 -8.9103 0.6032 0
M  V30 178 N -1.4665 -7.5757 0.7699 0
M  V30 179 C -2.4853 -6.8219 1.1335 0
M  V30 180 C -3.7646 -7.3446 1.3783 0
M  V30 181 H -6.9330 -6.5164 2.3042 0
M  V30 182 H -7.2000 -8.9535 2.1844 0
M  V30 183 H -5.3234 -10.3906 1.4855 0
M  V30 184 H -2.9417 -10.5887 0.7351 0
M  V30 185 H -0.7715 -9.4689 0.2588 0
M  V30 186 H -2.3018 -5.7562 1.2515 0
M  V30 END ATOM
M  V30 BEGIN BOND
M  V30 1 3 3 4
M  V30 2 1 4 5
M  V30 3 2 5 6
M  V30 4 1 6 7
M  V30 5 2 7 8
M  V30 6 1 8 9
M  V30 7 2 9 10
M  V30 8 1 10 11
M  V30 9 2 11 12
M  V30 10 1 12 13
M  V30 11 2 13 14
M  V30 12 1 14 5
M  V30 13 1 14 9
M  V30 14 1 6 15
M  V30 15 1 7 16
M  V30 16 1 8 17
M  V30 17 1 10 18
M  V30 18 1 12 19
M  V30 19 1 13 20
M  V30 20 2 21 22
M  V30 21 1 22 23
M  V30 22 2 23 24
M  V30 23 1 24 25
M  V30 24 2 25 26
M  V30 25 1 26 21
M  V30 26 1 22 27
M  V30 27 1 23 28
M  V30 28 1 25 29
M  V30 29 1 26 30
M  V30 30 3 31 32
M  V30 31 1 32 33
M  V30 32 2 33 34
M  V30 33 1 34 35
M  V30 34 2 35 36
M  V30 35 1 36 37
M  V30 36 2 37 38
M  V30 37 1 38 39
M  V30 38 2 39 40
M  V30 39 1 40 41
M  V30 40 2 41 42
M  V30 41 1 42 33
M  V30 42 1 42 37
M  V30 43 1 34 43
M  V30 44 1 35 44
M  V30 45 1 36 45
M  V30 46 1 38 46
M  V30 47 1 39 47
M  V30 48 1 41 48
M  V30 49 1 3 21
M  V30 50 1 24 31
M  V30 51 3 49 50
M  V30 52 1 50 51
M  V30 53 2 51 52
M  V30 54 1 52 53
M  V30 55 2 53 54
M  V30 56 1 54 55
M  V30 57 2 55 56
M  V30 58 1 56 57
M  V30 59 2 57 58
M  V30 60 1 58 59
M  V30 61 2 59 60
M  V30 62 1 60 51
M  V30 63 1 60 55
M  V30 64 1 52 61
M  V30 65 1 53 62
M  V30 66 1 54 63
M  V30 67 1 56 64
M  V30 68 1 58 65
M  V30 69 1 59 66
M  V30 70 2 67 68
M  V30 71 1 68 69
M  V30 72 2 69 70
M  V30 73 1 70 71
M  V30 74 2 71 72
M  V30 75 1 72 67
M  V30 76 1 68 73
M  V30 77 1 69 74
M  V30 78 1 71 75
M  V30 79 1 72 76
M  V30 80 3 77 78
M  V30 81 1 78 79
M  V30 82 2 79 80
M  V30 83 1 80 81
M  V30 84 2 81 82
M  V30 85 1 82 83
M  V30 86 2 83 84
M  V30 87 1 84 85
M  V30 88 2 85 86
M  V30 89 1 86 87
M  V30 90 2 87 88
M  V30 91 1 88 79
M  V30 92 1 88 83
M  V30 93 1 80 89
M  V30 94 1 81 90
M  V30 95 1 82 91
M  V30 96 1 84 92
M  V30 97 1 85 93
M  V30 98 1 87 94
M  V30 99 1 49 67
M  V30 100 1 70 77
M  V30 101 3 95 96
M  V30 102 1 96 97
M  V30 103 2 97 98
M  V30 104 1 98 99
M  V30 105 2 99 100
M  V30 106 1 100 101
M  V30 107 2 101 102
M  V30 108 1 102 103
M  V30 109 2 103 104
M  V30 110 1 104 105
M  V30 111 2 105 106
M  V30 112 1 106 97
M  V30 113 1 106 101
M  V30 114 1 98 107
M  V30 115 1 99 108
M  V30 116 1 100 109
M  V30 117 1 102 110
M  V30 118 1 104 111
M  V30 119 1 105 112
M  V30 120 2 113 114
M  V30 121 1 114 115
M  V30 122 2 115 116
M  V30 123 1 116 117
M  V30 124 2 117 118
M  V30 125 1 118 113
M  V30 126 1 114 119
M  V30 127 1 115 120
M  V30 128 1 117 121
M  V30 129 1 118 122
M  V30 130 3 123 124
M  V30 131 1 124 125
M  V30 132 2 125 126
M  V30 133 1 126 127
M  V30 134 2 127 128
M  V30 135 1 128 129
M  V30 136 2 129 130
M  V30 137 1 130 131
M  V30 138 2 131 132
M  V30 139 1 132 133
M  V30 140 2 133 134
M  V30 141 1 134 125
M  V30 142 1 134 129
M  V30 143 1 126 135
M  V30 144 1 127 136
M  V30 145 1 128 137
M  V30 146 1 130 138
M  V30 147 1 131 139
M  V30 148 1 133 140
M  V30 149 1 95 113
M  V30 150 1 116 123
M  V30 151 3 141 142
M  V30 152 1 142 143
M  V30 153 2 143 144
M  V30 154 1 144 145
M  V30 155 2 145 146
M  V30 156 1 146 147
M  V30 157 2 147 148
M  V30 158 1 148 149
M  V30 159 2 149 150
M  V30 160 1 150 151
M  V30 161 2 151 152
M  V30 162 1 152 143
M  V30 163 1 152 147
M  V30 164 1 144 153
M  V30 165 1 145 154
M  V30 166 1 146 155
M  V30 167 1 148 156
M  V30 168 1 150 157
M  V30 169 1 151 158
M  V30 170 2 159 160
M  V30 171 1 160 161
M  V30 172 2 161 162
M  V30 173 1 162 163
M  V30 174 2 163 164
M  V30 175 1 164 159
M  V30 176 1 160 165
M  V30 177 1 161 166
M  V30 178 1 163 167
M  V30 179 1 164 168
M  V30 180 3 169 170
M  V30 181 1 170 171
M  V30 182 2 171 172
M  V30 183 1 172 173
M  V30 184 2 173 174
M  V30 185 1 174 175
M  V30 186 2 175 176
M  V30 187 1 176 177
M  V30 188 2 177 178
M  V30 189 1 178 179
M  V30 190 2 179 180
M  V30 191 1 180 171
M  V30 192 1 180 175
M  V30 193 1 172 181
M  V30 194 1 173 182
M  V30 195 1 174 183
M  V30 196 1 176 184
M  V30 197 1 177 185
M  V30 198 1 179 186
M  V30 199 1 141 159
M  V30 200 1 162 169
M  V30 201 9 40 1
M  V30 202 9 86 1
M  V30 203 9 103 1
M  V30 204 9 149 1
M  V30 205 9 11 2
M  V30 206 9 57 2
M  V30 207 9 132 2
M  V30 208 9 178 2
M  V30 END BOND
M  V30 END CTAB
M  END

$$$$
