
     RDKit          3D

  0  0  0  0  0  0  0  0  0  0999 V3000
M  V30 BEGIN CTAB
M  V30 COUNTS 186 208 0 0 0
M  V30 BEGIN ATOM
M  V30 1 Pd -0.3225 -5.0638 4.7379 0 CHG=2
M  V30 2 Pd 0.3683 5.0331 -4.7676 0 CHG=2
M  V30 3 C 0.5441 4.7858 2.9370 0
M  V30 4 C 0.6411 5.6658 2.1124 0
M  V30 5 C 0.8055 6.6532 1.1232 0
M  V30 6 C 1.2731 7.9163 1.4431 0
M  V30 7 C 1.4920 8.8772 0.4494 0
M  V30 8 C 1.2720 8.5890 -0.8733 0
M  V30 9 C 0.7910 7.3143 -1.2411 0
M  V30 10 C 0.5905 6.9390 -2.5833 0
M  V30 11 N 0.1415 5.7508 -2.9284 0
M  V30 12 C -0.1896 4.8455 -1.9732 0
M  V30 13 C -0.0062 5.0996 -0.6444 0
M  V30 14 C 0.5252 6.3401 -0.2371 0
M  V30 15 H 1.4769 8.1603 2.4747 0
M  V30 16 H 1.8524 9.8529 0.7370 0
M  V30 17 H 1.4626 9.3258 -1.6372 0
M  V30 18 H 0.8155 7.6362 -3.3866 0
M  V30 19 H -0.6069 3.9091 -2.3385 0
M  V30 20 H -0.2556 4.3651 0.1042 0
M  V30 21 C 0.4384 3.7468 3.8810 0
M  V30 22 C 0.7012 3.9889 5.2343 0
M  V30 23 C 0.6004 2.9676 6.1529 0
M  V30 24 C 0.2376 1.6802 5.7384 0
M  V30 25 C -0.0202 1.4378 4.3842 0
M  V30 26 C 0.0767 2.4591 3.4666 0
M  V30 27 H 0.9793 4.9820 5.5544 0
M  V30 28 H 0.7985 3.1546 7.1978 0
M  V30 29 H -0.3086 0.4475 4.0704 0
M  V30 30 H -0.1285 2.2768 2.4237 0
M  V30 31 C 0.1051 0.6495 6.6877 0
M  V30 32 C -0.0374 -0.2321 7.5049 0
M  V30 33 C -0.2773 -1.1917 8.5046 0
M  V30 34 C -0.3771 -0.7956 9.8271 0
M  V30 35 C -0.6893 -1.7141 10.8337 0
M  V30 36 C -0.9250 -3.0341 10.5379 0
M  V30 37 C -0.8244 -3.4848 9.2096 0
M  V30 38 C -1.0695 -4.8250 8.8338 0
M  V30 39 C -0.9336 -5.2007 7.5292 0
M  V30 40 N -0.5370 -4.3310 6.5673 0
M  V30 41 C -0.3227 -3.0667 6.8737 0
M  V30 42 C -0.4716 -2.5677 8.1771 0
M  V30 43 H -0.2231 0.2420 10.0814 0
M  V30 44 H -0.7585 -1.3693 11.8541 0
M  V30 45 H -1.1887 -3.7354 11.3140 0
M  V30 46 H -1.3652 -5.5395 9.5853 0
M  V30 47 H -1.1371 -6.2190 7.2028 0
M  V30 48 H -0.0096 -2.4036 6.0702 0
M  V30 49 C 5.4525 1.6432 -0.0573 0
M  V30 50 C 5.5022 2.5589 -0.8464 0
M  V30 51 C 5.5072 3.6530 -1.7326 0
M  V30 52 C 6.5689 4.5399 -1.7705 0
M  V30 53 C 6.5423 5.6611 -2.6080 0
M  V30 54 C 5.4551 5.9252 -3.4009 0
M  V30 55 C 4.3557 5.0403 -3.3985 0
M  V30 56 C 3.1930 5.2753 -4.1568 0
M  V30 57 N 2.1687 4.4484 -4.1608 0
M  V30 58 C 2.2237 3.2953 -3.4478 0
M  V30 59 C 3.2924 2.9876 -2.6554 0
M  V30 60 C 4.3851 3.8751 -2.5804 0
M  V30 61 H 7.4260 4.3676 -1.1374 0
M  V30 62 H 7.3895 6.3293 -2.6125 0
M  V30 63 H 5.4303 6.8017 -4.0283 0
M  V30 64 H 3.1089 6.1719 -4.7664 0
M  V30 65 H 1.3654 2.6353 -3.5527 0
M  V30 66 H 3.3159 2.0750 -2.0816 0
M  V30 67 C 5.3660 0.5713 0.8520 0
M  V30 68 C 6.5236 0.0063 1.3987 0
M  V30 69 C 6.4292 -1.0569 2.2696 0
M  V30 70 C 5.1752 -1.5747 2.6174 0
M  V30 71 C 4.0175 -0.9947 2.0864 0
M  V30 72 C 4.1117 0.0633 1.2111 0
M  V30 73 H 7.4909 0.4019 1.1270 0
M  V30 74 H 7.3221 -1.5002 2.6843 0
M  V30 75 H 3.0529 -1.3865 2.3661 0
M  V30 76 H 3.2225 0.5113 0.7965 0
M  V30 77 C 5.0976 -2.6931 3.4687 0
M  V30 78 C 5.0430 -3.6808 4.1665 0
M  V30 79 C 5.0674 -4.8665 4.9221 0
M  V30 80 C 6.2809 -5.3953 5.3274 0
M  V30 81 C 6.3449 -6.6071 6.0215 0
M  V30 82 C 5.2062 -7.3197 6.3059 0
M  V30 83 C 3.9500 -6.8190 5.9198 0
M  V30 84 C 2.7417 -7.5102 6.1645 0
M  V30 85 C 1.5544 -6.9613 5.7767 0
M  V30 86 N 1.4845 -5.7457 5.1800 0
M  V30 87 C 2.5909 -5.0792 4.9158 0
M  V30 88 C 3.8655 -5.5683 5.2410 0
M  V30 89 H 7.1922 -4.8658 5.0947 0
M  V30 90 H 7.3088 -6.9876 6.3228 0
M  V30 91 H 5.2608 -8.2646 6.8232 0
M  V30 92 H 2.7714 -8.4702 6.6545 0
M  V30 93 H 0.6080 -7.4769 5.9296 0
M  V30 94 H 2.4871 -4.1098 4.4329 0
M  V30 95 C -0.7828 -4.8015 -2.9595 0
M  V30 96 C -0.8962 -5.6740 -2.1290 0
M  V30 97 C -1.0745 -6.6507 -1.1310 0
M  V30 98 C -1.6167 -7.8888 -1.4283 0
M  V30 99 C -1.8502 -8.8340 -0.4226 0
M  V30 100 C -1.5674 -8.5542 0.8897 0
M  V30 101 C -1.0044 -7.3065 1.2336 0
M  V30 102 C -0.7293 -6.9413 2.5652 0
M  V30 103 N -0.1986 -5.7805 2.8878 0
M  V30 104 C 0.1453 -4.8974 1.9168 0
M  V30 105 C -0.1073 -5.1417 0.5974 0
M  V30 106 C -0.7257 -6.3498 0.2163 0
M  V30 107 H -1.8711 -8.1242 -2.4505 0
M  V30 108 H -2.2721 -9.7898 -0.6926 0
M  V30 109 H -1.7690 -9.2776 1.6635 0
M  V30 110 H -0.9616 -7.6239 3.3792 0
M  V30 111 H 0.6360 -3.9890 2.2591 0
M  V30 112 H 0.1572 -4.4239 -0.1624 0
M  V30 113 C -0.6420 -3.7666 -3.9041 0
M  V30 114 C -0.6081 -2.4339 -3.4760 0
M  V30 115 C -0.4539 -1.4164 -4.3901 0
M  V30 116 C -0.3222 -1.7076 -5.7528 0
M  V30 117 C -0.3711 -3.0399 -6.1821 0
M  V30 118 C -0.5320 -4.0580 -5.2684 0
M  V30 119 H -0.7064 -2.2147 -2.4247 0
M  V30 120 H -0.4296 -0.3895 -4.0634 0
M  V30 121 H -0.2764 -3.2641 -7.2341 0
M  V30 122 H -0.5647 -5.0854 -5.5996 0
M  V30 123 C -0.1069 -0.6825 -6.6929 0
M  V30 124 C 0.1215 0.1875 -7.5031 0
M  V30 125 C 0.4583 1.1289 -8.4920 0
M  V30 126 C 0.6417 0.7126 -9.7995 0
M  V30 127 C 1.0424 1.6103 -10.7936 0
M  V30 128 C 1.2849 2.9293 -10.4987 0
M  V30 129 C 1.1057 3.3995 -9.1856 0
M  V30 130 C 1.3553 4.7393 -8.8110 0
M  V30 131 C 1.1470 5.1344 -7.5218 0
M  V30 132 N 0.6762 4.2846 -6.5761 0
M  V30 133 C 0.4508 3.0220 -6.8812 0
M  V30 134 C 0.6648 2.5040 -8.1679 0
M  V30 135 H 0.4806 -0.3243 -10.0516 0
M  V30 136 H 1.1738 1.2500 -11.8024 0
M  V30 137 H 1.6143 3.6145 -11.2639 0
M  V30 138 H 1.7127 5.4377 -9.5509 0
M  V30 139 H 1.3507 6.1525 -7.1949 0
M  V30 140 H 0.0768 2.3756 -6.0900 0
M  V30 141 C -5.4420 -1.4715 0.2293 0
M  V30 142 C -5.5029 -2.3765 1.0300 0
M  V30 143 C -5.5226 -3.4620 1.9254 0
M  V30 144 C -6.6234 -4.2968 2.0146 0
M  V30 145 C -6.6170 -5.4102 2.8625 0
M  V30 146 C -5.5121 -5.7209 3.6131 0
M  V30 147 C -4.3709 -4.8927 3.5544 0
M  V30 148 C -3.1884 -5.1820 4.2617 0
M  V30 149 N -2.1232 -4.4105 4.2088 0
M  V30 150 C -2.1505 -3.2624 3.4856 0
M  V30 151 C -3.2375 -2.9051 2.7410 0
M  V30 152 C -4.3779 -3.7338 2.7270 0
M  V30 153 H -7.4968 -4.0876 1.4158 0
M  V30 154 H -7.4952 -6.0357 2.9093 0
M  V30 155 H -5.5044 -6.5919 4.2486 0
M  V30 156 H -3.1225 -6.0760 4.8767 0
M  V30 157 H -1.2509 -2.6522 3.5395 0
M  V30 158 H -3.2404 -1.9998 2.1557 0
M  V30 159 C -5.3494 -0.4238 -0.7064 0
M  V30 160 C -4.1597 0.3049 -0.8253 0
M  V30 161 C -4.0609 1.3249 -1.7442 0
M  V30 162 C -5.1504 1.6434 -2.5633 0
M  V30 163 C -6.3399 0.9141 -2.4453 0
M  V30 164 C -6.4378 -0.1090 -1.5284 0
M  V30 165 H -3.3243 0.0622 -0.1879 0
M  V30 166 H -3.1501 1.8950 -1.8311 0
M  V30 167 H -7.1806 1.1607 -3.0768 0
M  V30 168 H -7.3557 -0.6701 -1.4365 0
M  V30 169 C -5.0692 2.7086 -3.4800 0
M  V30 170 C -5.0058 3.6428 -4.2469 0
M  V30 171 C -5.0183 4.7724 -5.0845 0
M  V30 172 C -6.2221 5.2571 -5.5659 0
M  V30 173 C -6.2739 6.4210 -6.3387 0
M  V30 174 C -5.1335 7.1292 -6.6276 0
M  V30 175 C -3.8863 6.6690 -6.1688 0
M  V30 176 C -2.6768 7.3572 -6.4163 0
M  V30 177 C -1.4976 6.8443 -5.9600 0
M  V30 178 N -1.4357 5.6651 -5.2931 0
M  V30 179 C -2.5447 5.0058 -5.0214 0
M  V30 180 C -3.8128 5.4644 -5.4104 0
M  V30 181 H -7.1356 4.7333 -5.3295 0
M  V30 182 H -7.2306 6.7694 -6.6972 0
M  V30 183 H -5.1801 8.0395 -7.2044 0
M  V30 184 H -2.6990 8.2861 -6.9634 0
M  V30 185 H -0.5517 7.3605 -6.1133 0
M  V30 186 H -2.4484 4.0665 -4.4813 0
M  V30 END ATOM
M  V30 BEGIN BOND
M  V30 1 3 3 4
M  V30 2 1 4 5
M  V30 3 2 5 6
M  V30 4 1 6 7
M  V30 5 2 7 8
M  V30 6 1 8 9
M  V30 7 2 9 10
M  V30 8 1 10 11
M  V30 9 2 11 12
M  V30 10 1 12 13
M  V30 11 2 13 14
M  V30 12 1 14 5
M  V30 13 1 14 9
M  V30 14 1 6 15
M  V30 15 1 7 16
M  V30 16 1 8 17
M  V30 17 1 10 18
M  V30 18 1 12 19
M  V30 19 1 13 20
M  V30 20 2 21 22
M  V30 21 1 22 23
M  V30 22 2 23 24
M  V30 23 1 24 25
M  V30 24 2 25 26
M  V30 25 1 26 21
M  V30 26 1 22 27
M  V30 27 1 23 28
M  V30 28 1 25 29
M  V30 29 1 26 30
M  V30 30 3 31 32
M  V30 31 1 32 33
M  V30 32 2 33 34
M  V30 33 1 34 35
M  V30 34 2 35 36
M  V30 35 1 36 37
M  V30 36 2 37 38
M  V30 37 1 38 39
M  V30 38 2 39 40
M  V30 39 1 40 41
M  V30 40 2 41 42
M  V30 41 1 42 33
M  V30 42 1 42 37
M  V30 43 1 34 43
M  V30 44 1 35 44
M  V30 45 1 36 45
M  V30 46 1 38 46
M  V30 47 1 39 47
M  V30 48 1 41 48
M  V30 49 1 3 21
M  V30 50 1 24 31
M  V30 51 3 49 50
M  V30 52 1 50 51
M  V30 53 2 51 52
M  V30 54 1 52 53
M  V30 55 2 53 54
M  V30 56 1 54 55
M  V30 57 2 55 56
M  V30 58 1 56 57
M  V30 59 2 57 58
M  V30 60 1 58 59
M  V30 61 2 59 60
M  V30 62 1 60 51
M  V30 63 1 60 55
M  V30 64 1 52 61
M  V30 65 1 53 62
M  V30 66 1 54 63
M  V30 67 1 56 64
M  V30 68 1 58 65
M  V30 69 1 59 66
M  V30 70 2 67 68
M  V30 71 1 68 69
M  V30 72 2 69 70
M  V30 73 1 70 71
M  V30 74 2 71 72
M  V30 75 1 72 67
M  V30 76 1 68 73
M  V30 77 1 69 74
M  V30 78 1 71 75
M  V30 79 1 72 76
M  V30 80 3 77 78
M  V30 81 1 78 79
M  V30 82 2 79 80
M  V30 83 1 80 81
M  V30 84 2 81 82
M  V30 85 1 82 83
M  V30 86 2 83 84
M  V30 87 1 84 85
M  V30 88 2 85 86
M  V30 89 1 86 87
M  V30 90 2 87 88
M  V30 91 1 88 79
M  V30 92 1 88 83
M  V30 93 1 80 89
M  V30 94 1 81 90
M  V30 95 1 82 91
M  V30 96 1 84 92
M  V30 97 1 85 93
M  V30 98 1 87 94
M  V30 99 1 49 67
M  V30 100 1 70 77
M  V30 101 3 95 96
M  V30 102 1 96 97
M  V30 103 2 97 98
M  V30 104 1 98 99
M  V30 105 2 99 100
M  V30 106 1 100 101
M  V30 107 2 101 102
M  V30 108 1 102 103
M  V30 109 2 103 104
M  V30 110 1 104 105
M  V30 111 2 105 106
M  V30 112 1 106 97
M  V30 113 1 106 101
M  V30 114 1 98 107
M  V30 115 1 99 108
M  V30 116 1 100 109
M  V30 117 1 102 110
M  V30 118 1 104 111
M  V30 119 1 105 112
M  V30 120 2 113 114
M  V30 121 1 114 115
M  V30 122 2 115 116
M  V30 123 1 116 117
M  V30 124 2 117 118
M  V30 125 1 118 113
M  V30 126 1 114 119
M  V30 127 1 115 120
M  V30 128 1 117 121
M  V30 129 1 118 122
M  V30 130 3 123 124
M  V30 131 1 124 125
M  V30 132 2 125 126
M  V30 133 1 126 127
M  V30 134 2 127 128
M  V30 135 1 128 129
M  V30 136 2 129 130
M  V30 137 1 130 131
M  V30 138 2 131 132
M  V30 139 1 132 133
M  V30 140 2 133 134
M  V30 141 1 134 125
M  V30 142 1 134 129
M  V30 143 1 126 135
M  V30 144 1 127 136
M  V30 145 1 128 137
M  V30 146 1 130 138
M  V30 147 1 131 139
M  V30 148 1 133 140
M  V30 149 1 95 113
M  V30 150 1 116 123
M  V30 151 3 141 142
M  V30 152 1 142 143
M  V30 153 2 143 144
M  V30 154 1 144 145
M  V30 155 2 145 146
M  V30 156 1 146 147
M  V30 157 2 147 148
M  V30 158 1 148 149
M  V30 159 2 149 150
M  V30 160 1 150 151
M  V30 161 2 151 152
M  V30 162 1 152 143
M  V30 163 1 152 147
M  V30 164 1 144 153
M  V30 165 1 145 154
M  V30 166 1 146 155
M  V30 167 1 148 156
M  V30 168 1 150 157
M  V30 169 1 151 158
M  V30 170 2 159 160
M  V30 171 1 160 161
M  V30 172 2 161 162
M  V30 173 1 162 163
M  V30 174 2 163 164
M  V30 175 1 164 159
M  V30 176 1 160 165
M  V30 177 1 161 166
M  V30 178 1 163 167
M  V30 179 1 164 168
M  V30 180 3 169 170
M  V30 181 1 170 171
M  V30 182 2 171 172
M  V30 183 1 172 173
M  V30 184 2 173 174
M  V30 185 1 174 175
M  V30 186 2 175 176
M  V30 187 1 176 177
M  V30 188 2 177 178
M  V30 189 1 178 179
M  V30 190 2 179 180
M  V30 191 1 180 171
M  V30 192 1 180 175
M  V30 193 1 172 181
M  V30 194 1 173 182
M  V30 195 1 174 183
M  V30 196 1 176 184
M  V30 197 1 177 185
M  V30 198 1 179 186
M  V30 199 1 141 159
M  V30 200 1 162 169
M  V30 201 9 40 1
M  V30 202 9 86 1
M  V30 203 9 103 1
M  V30 204 9 149 1
M  V30 205 9 11 2
M  V30 206 9 57 2
M  V30 207 9 132 2
M  V30 208 9 178 2
M  V30 END BOND
M  V30 END CTAB
M  END

$$$$
