
     RDKit          3D

  0  0  0  0  0  0  0  0  0  0999 V3000
M  V30 BEGIN CTAB
M  V30 COUNTS 186 208 0 0 0
M  V30 BEGIN ATOM
M  V30 1 Pd 2.7008 5.2704 2.1755 0 CHG=2
M  V30 2 Pd -3.4412 -6.0627 -2.9836 0 CHG=2
M  V30 3 C 3.8632 -3.8111 -1.9700 0
M  V30 4 C 3.3335 -4.8157 -2.3872 0
M  V30 5 C 2.6811 -5.9877 -2.8130 0
M  V30 6 C 3.3757 -7.1733 -2.9809 0
M  V30 7 C 2.7142 -8.3510 -3.3468 0
M  V30 8 C 1.3548 -8.3712 -3.5276 0
M  V30 9 C 0.6103 -7.1827 -3.3706 0
M  V30 10 C -0.7918 -7.1457 -3.4944 0
M  V30 11 N -1.4880 -6.0382 -3.3488 0
M  V30 12 C -0.8532 -4.8625 -3.1110 0
M  V30 13 C 0.5003 -4.7946 -2.9452 0
M  V30 14 C 1.2754 -5.9682 -3.0381 0
M  V30 15 H 4.4432 -7.1891 -2.8210 0
M  V30 16 H 3.2895 -9.2552 -3.4732 0
M  V30 17 H 0.8469 -9.2858 -3.7886 0
M  V30 18 H -1.3470 -8.0551 -3.7102 0
M  V30 19 H -1.4944 -3.9846 -3.0606 0
M  V30 20 H 0.9911 -3.8573 -2.7381 0
M  V30 21 C 4.4608 -2.6375 -1.4727 0
M  V30 22 C 5.8384 -2.5915 -1.2295 0
M  V30 23 C 6.4171 -1.4419 -0.7387 0
M  V30 24 C 5.6305 -0.3134 -0.4770 0
M  V30 25 C 4.2522 -0.3618 -0.7159 0
M  V30 26 C 3.6743 -1.5092 -1.2098 0
M  V30 27 H 6.4455 -3.4611 -1.4329 0
M  V30 28 H 7.4805 -1.4041 -0.5551 0
M  V30 29 H 3.6515 0.5122 -0.5222 0
M  V30 30 H 2.6138 -1.5469 -1.4017 0
M  V30 31 C 6.2341 0.8679 -0.0064 0
M  V30 32 C 6.7538 1.8939 0.3711 0
M  V30 33 C 7.4204 3.0824 0.7187 0
M  V30 34 C 8.7937 3.1688 0.5689 0
M  V30 35 C 9.4748 4.3604 0.8344 0
M  V30 36 C 8.7991 5.4870 1.2340 0
M  V30 37 C 7.4046 5.4438 1.4102 0
M  V30 38 C 6.6460 6.5696 1.8037 0
M  V30 39 C 5.2976 6.4537 1.9770 0
M  V30 40 N 4.6497 5.2738 1.8127 0
M  V30 41 C 5.3183 4.2067 1.4222 0
M  V30 42 C 6.7004 4.2265 1.1783 0
M  V30 43 H 9.3440 2.3045 0.2296 0
M  V30 44 H 10.5461 4.3909 0.7067 0
M  V30 45 H 9.3251 6.4112 1.4154 0
M  V30 46 H 7.1430 7.5135 1.9612 0
M  V30 47 H 4.6813 7.3062 2.2568 0
M  V30 48 H 4.7578 3.2825 1.2996 0
M  V30 49 C 0.3555 -4.4247 3.5302 0
M  V30 50 C -0.1325 -5.4260 3.0580 0
M  V30 51 C -0.6642 -6.5802 2.4519 0
M  V30 52 C -0.3885 -7.8422 2.9484 0
M  V30 53 C -0.8675 -8.9901 2.3063 0
M  V30 54 C -1.6073 -8.8993 1.1554 0
M  V30 55 C -1.9184 -7.6303 0.6217 0
M  V30 56 C -2.6374 -7.4691 -0.5780 0
M  V30 57 N -2.9339 -6.2865 -1.0746 0
M  V30 58 C -2.5816 -5.1606 -0.4045 0
M  V30 59 C -1.8559 -5.2064 0.7513 0
M  V30 60 C -1.4704 -6.4528 1.2854 0
M  V30 61 H 0.2127 -7.9414 3.8394 0
M  V30 62 H -0.6343 -9.9574 2.7240 0
M  V30 63 H -1.9559 -9.7872 0.6526 0
M  V30 64 H -2.9663 -8.3399 -1.1403 0
M  V30 65 H -2.9177 -4.2251 -0.8462 0
M  V30 66 H -1.5690 -4.3029 1.2650 0
M  V30 67 C 0.9114 -3.2428 4.0569 0
M  V30 68 C 1.3328 -3.1866 5.3901 0
M  V30 69 C 1.8540 -2.0188 5.9018 0
M  V30 70 C 1.9708 -0.8831 5.0905 0
M  V30 71 C 1.5687 -0.9472 3.7515 0
M  V30 72 C 1.0417 -2.1120 3.2415 0
M  V30 73 H 1.2384 -4.0604 6.0174 0
M  V30 74 H 2.1703 -1.9712 6.9332 0
M  V30 75 H 1.6720 -0.0758 3.1254 0
M  V30 76 H 0.7272 -2.1652 2.2113 0
M  V30 77 C 2.4584 0.3169 5.6416 0
M  V30 78 C 2.8380 1.3550 6.1352 0
M  V30 79 C 3.2200 2.5347 6.7983 0
M  V30 80 C 3.5195 2.4944 8.1493 0
M  V30 81 C 3.8374 3.6595 8.8535 0
M  V30 82 C 3.8435 4.8828 8.2300 0
M  V30 83 C 3.5519 4.9725 6.8572 0
M  V30 84 C 3.5226 6.2009 6.1590 0
M  V30 85 C 3.2469 6.2166 4.8228 0
M  V30 86 N 3.0230 5.0783 4.1210 0
M  V30 87 C 3.0211 3.9145 4.7403 0
M  V30 88 C 3.2588 3.7893 6.1179 0
M  V30 89 H 3.4981 1.5478 8.6674 0
M  V30 90 H 4.0671 3.5891 9.9057 0
M  V30 91 H 4.0687 5.7824 8.7810 0
M  V30 92 H 3.7160 7.1175 6.6929 0
M  V30 93 H 3.1942 7.1467 4.2598 0
M  V30 94 H 2.8333 3.0280 4.1380 0
M  V30 95 C -4.6076 3.1467 0.9074 0
M  V30 96 C -4.0711 4.1546 1.3072 0
M  V30 97 C -3.4077 5.3269 1.7167 0
M  V30 98 C -4.0775 6.5344 1.8095 0
M  V30 99 C -3.4008 7.7095 2.1564 0
M  V30 100 C -2.0504 7.7032 2.3950 0
M  V30 101 C -1.3322 6.4906 2.3201 0
M  V30 102 C 0.0608 6.4226 2.5128 0
M  V30 103 N 0.7320 5.2919 2.4494 0
M  V30 104 C 0.0763 4.1240 2.2320 0
M  V30 105 C -1.2690 4.0841 2.0021 0
M  V30 106 C -2.0143 5.2807 2.0060 0
M  V30 107 H -5.1362 6.5703 1.6023 0
M  V30 108 H -3.9567 8.6321 2.2214 0
M  V30 109 H -1.5298 8.6149 2.6410 0
M  V30 110 H 0.6300 7.3266 2.7163 0
M  V30 111 H 0.6914 3.2272 2.2568 0
M  V30 112 H -1.7746 3.1504 1.8150 0
M  V30 113 C -5.2051 1.9591 0.4426 0
M  V30 114 C -4.4099 0.9569 -0.1264 0
M  V30 115 C -4.9825 -0.2142 -0.5683 0
M  V30 116 C -6.3622 -0.4142 -0.4449 0
M  V30 117 C -7.1593 0.5947 0.1106 0
M  V30 118 C -6.5876 1.7696 0.5469 0
M  V30 119 H -3.3468 1.1141 -0.2162 0
M  V30 120 H -4.3730 -0.9865 -1.0086 0
M  V30 121 H -8.2246 0.4432 0.1997 0
M  V30 122 H -7.2020 2.5450 0.9798 0
M  V30 123 C -6.9543 -1.6286 -0.8397 0
M  V30 124 C -7.4661 -2.6848 -1.1361 0
M  V30 125 C -8.1225 -3.9024 -1.3895 0
M  V30 126 C -9.4828 -4.0087 -1.1556 0
M  V30 127 C -10.1532 -5.2225 -1.3326 0
M  V30 128 C -9.4784 -6.3519 -1.7260 0
M  V30 129 C -8.0969 -6.2909 -1.9816 0
M  V30 130 C -7.3394 -7.4188 -2.3710 0
M  V30 131 C -6.0040 -7.2880 -2.6182 0
M  V30 132 N -5.3697 -6.0930 -2.5299 0
M  V30 133 C -6.0372 -5.0215 -2.1496 0
M  V30 134 C -7.4054 -5.0526 -1.8382 0
M  V30 135 H -10.0312 -3.1408 -0.8225 0
M  V30 136 H -11.2146 -5.2671 -1.1422 0
M  V30 137 H -9.9951 -7.2916 -1.8414 0
M  V30 138 H -7.8266 -8.3761 -2.4658 0
M  V30 139 H -5.3872 -8.1402 -2.8978 0
M  V30 140 H -5.4868 -4.0850 -2.0893 0
M  V30 141 C -0.8467 3.5375 -4.4468 0
M  V30 142 C -0.3451 4.5386 -3.9885 0
M  V30 143 C 0.1972 5.6955 -3.3985 0
M  V30 144 C -0.0166 6.9475 -3.9490 0
M  V30 145 C 0.4735 8.1016 -3.3274 0
M  V30 146 C 1.1604 8.0290 -2.1425 0
M  V30 147 C 1.4035 6.7712 -1.5507 0
M  V30 148 C 2.0592 6.6311 -0.3125 0
M  V30 149 N 2.2876 5.4589 0.2408 0
M  V30 150 C 1.9255 4.3208 -0.4037 0
M  V30 151 C 1.2588 4.3477 -1.5947 0
M  V30 152 C 0.9461 5.5854 -2.1927 0
M  V30 153 H -0.5752 7.0336 -4.8686 0
M  V30 154 H 0.2915 9.0602 -3.7884 0
M  V30 155 H 1.5174 8.9229 -1.6566 0
M  V30 156 H 2.3931 7.5102 0.2332 0
M  V30 157 H 2.2006 3.3923 0.0930 0
M  V30 158 H 0.9599 3.4369 -2.0881 0
M  V30 159 C -1.4345 2.3653 -4.9590 0
M  V30 160 C -1.2750 1.1496 -4.2828 0
M  V30 161 C -1.8543 0.0021 -4.7748 0
M  V30 162 C -2.6035 0.0417 -5.9564 0
M  V30 163 C -2.7641 1.2575 -6.6323 0
M  V30 164 C -2.1875 2.4066 -6.1383 0
M  V30 165 H -0.6911 1.1206 -3.3765 0
M  V30 166 H -1.7248 -0.9377 -4.2626 0
M  V30 167 H -3.3414 1.2876 -7.5444 0
M  V30 168 H -2.3100 3.3437 -6.6604 0
M  V30 169 C -3.1687 -1.1341 -6.4851 0
M  V30 170 C -3.6294 -2.1514 -6.9521 0
M  V30 171 C -4.1055 -3.3131 -7.5859 0
M  V30 172 C -4.4900 -3.2620 -8.9145 0
M  V30 173 C -4.8962 -4.4151 -9.5927 0
M  V30 174 C -4.9077 -5.6368 -8.9660 0
M  V30 175 C -4.5355 -5.7355 -7.6135 0
M  V30 176 C -4.5095 -6.9628 -6.9130 0
M  V30 177 C -4.1585 -6.9855 -5.5947 0
M  V30 178 N -3.8574 -5.8540 -4.9104 0
M  V30 179 C -3.8465 -4.6928 -5.5349 0
M  V30 180 C -4.1536 -4.5633 -6.8982 0
M  V30 181 H -4.4633 -2.3179 -9.4368 0
M  V30 182 H -5.1893 -4.3373 -10.6286 0
M  V30 183 H -5.1994 -6.5280 -9.4991 0
M  V30 184 H -4.7661 -7.8732 -7.4309 0
M  V30 185 H -4.1060 -7.9160 -5.0324 0
M  V30 186 H -3.5956 -3.8119 -4.9480 0
M  V30 END ATOM
M  V30 BEGIN BOND
M  V30 1 3 3 4
M  V30 2 1 4 5
M  V30 3 2 5 6
M  V30 4 1 6 7
M  V30 5 2 7 8
M  V30 6 1 8 9
M  V30 7 2 9 10
M  V30 8 1 10 11
M  V30 9 2 11 12
M  V30 10 1 12 13
M  V30 11 2 13 14
M  V30 12 1 14 5
M  V30 13 1 14 9
M  V30 14 1 6 15
M  V30 15 1 7 16
M  V30 16 1 8 17
M  V30 17 1 10 18
M  V30 18 1 12 19
M  V30 19 1 13 20
M  V30 20 2 21 22
M  V30 21 1 22 23
M  V30 22 2 23 24
M  V30 23 1 24 25
M  V30 24 2 25 26
M  V30 25 1 26 21
M  V30 26 1 22 27
M  V30 27 1 23 28
M  V30 28 1 25 29
M  V30 29 1 26 30
M  V30 30 3 31 32
M  V30 31 1 32 33
M  V30 32 2 33 34
M  V30 33 1 34 35
M  V30 34 2 35 36
M  V30 35 1 36 37
M  V30 36 2 37 38
M  V30 37 1 38 39
M  V30 38 2 39 40
M  V30 39 1 40 41
M  V30 40 2 41 42
M  V30 41 1 42 33
M  V30 42 1 42 37
M  V30 43 1 34 43
M  V30 44 1 35 44
M  V30 45 1 36 45
M  V30 46 1 38 46
M  V30 47 1 39 47
M  V30 48 1 41 48
M  V30 49 1 3 21
M  V30 50 1 24 31
M  V30 51 3 49 50
M  V30 52 1 50 51
M  V30 53 2 51 52
M  V30 54 1 52 53
M  V30 55 2 53 54
M  V30 56 1 54 55
M  V30 57 2 55 56
M  V30 58 1 56 57
M  V30 59 2 57 58
M  V30 60 1 58 59
M  V30 61 2 59 60
M  V30 62 1 60 51
M  V30 63 1 60 55
M  V30 64 1 52 61
M  V30 65 1 53 62
M  V30 66 1 54 63
M  V30 67 1 56 64
M  V30 68 1 58 65
M  V30 69 1 59 66
M  V30 70 2 67 68
M  V30 71 1 68 69
M  V30 72 2 69 70
M  V30 73 1 70 71
M  V30 74 2 71 72
M  V30 75 1 72 67
M  V30 76 1 68 73
M  V30 77 1 69 74
M  V30 78 1 71 75
M  V30 79 1 72 76
M  V30 80 3 77 78
M  V30 81 1 78 79
M  V30 82 2 79 80
M  V30 83 1 80 81
M  V30 84 2 81 82
M  V30 85 1 82 83
M  V30 86 2 83 84
M  V30 87 1 84 85
M  V30 88 2 85 86
M  V30 89 1 86 87
M  V30 90 2 87 88
M  V30 91 1 88 79
M  V30 92 1 88 83
M  V30 93 1 80 89
M  V30 94 1 81 90
M  V30 95 1 82 91
M  V30 96 1 84 92
M  V30 97 1 85 93
M  V30 98 1 87 94
M  V30 99 1 49 67
M  V30 100 1 70 77
M  V30 101 3 95 96
M  V30 102 1 96 97
M  V30 103 2 97 98
M  V30 104 1 98 99
M  V30 105 2 99 100
M  V30 106 1 100 101
M  V30 107 2 101 102
M  V30 108 1 102 103
M  V30 109 2 103 104
M  V30 110 1 104 105
M  V30 111 2 105 106
M  V30 112 1 106 97
M  V30 113 1 106 101
M  V30 114 1 98 107
M  V30 115 1 99 108
M  V30 116 1 100 109
M  V30 117 1 102 110
M  V30 118 1 104 111
M  V30 119 1 105 112
M  V30 120 2 113 114
M  V30 121 1 114 115
M  V30 122 2 115 116
M  V30 123 1 116 117
M  V30 124 2 117 118
M  V30 125 1 118 113
M  V30 126 1 114 119
M  V30 127 1 115 120
M  V30 128 1 117 121
M  V30 129 1 118 122
M  V30 130 3 123 124
M  V30 131 1 124 125
M  V30 132 2 125 126
M  V30 133 1 126 127
M  V30 134 2 127 128
M  V30 135 1 128 129
M  V30 136 2 129 130
M  V30 137 1 130 131
M  V30 138 2 131 132
M  V30 139 1 132 133
M  V30 140 2 133 134
M  V30 141 1 134 125
M  V30 142 1 134 129
M  V30 143 1 126 135
M  V30 144 1 127 136
M  V30 145 1 128 137
M  V30 146 1 130 138
M  V30 147 1 131 139
M  V30 148 1 133 140
M  V30 149 1 95 113
M  V30 150 1 116 123
M  V30 151 3 141 142
M  V30 152 1 142 143
M  V30 153 2 143 144
M  V30 154 1 144 145
M  V30 155 2 145 146
M  V30 156 1 146 147
M  V30 157 2 147 148
M  V30 158 1 148 149
M  V30 159 2 149 150
M  V30 160 1 150 151
M  V30 161 2 151 152
M  V30 162 1 152 143
M  V30 163 1 152 147
M  V30 164 1 144 153
M  V30 165 1 145 154
M  V30 166 1 146 155
M  V30 167 1 148 156
M  V30 168 1 150 157
M  V30 169 1 151 158
M  V30 170 2 159 160
M  V30 171 1 160 161
M  V30 172 2 161 162
M  V30 173 1 162 163
M  V30 174 2 163 164
M  V30 175 1 164 159
M  V30 176 1 160 165
M  V30 177 1 161 166
M  V30 178 1 163 167
M  V30 179 1 164 168
M  V30 180 3 169 170
M  V30 181 1 170 171
M  V30 182 2 171 172
M  V30 183 1 172 173
M  V30 184 2 173 174
M  V30 185 1 174 175
M  V30 186 2 175 176
M  V30 187 1 176 177
M  V30 188 2 177 178
M  V30 189 1 178 179
M  V30 190 2 179 180
M  V30 191 1 180 171
M  V30 192 1 180 175
M  V30 193 1 172 181
M  V30 194 1 173 182
M  V30 195 1 174 183
M  V30 196 1 176 184
M  V30 197 1 177 185
M  V30 198 1 179 186
M  V30 199 1 141 159
M  V30 200 1 162 169
M  V30 201 9 40 1
M  V30 202 9 86 1
M  V30 203 9 103 1
M  V30 204 9 149 1
M  V30 205 9 11 2
M  V30 206 9 57 2
M  V30 207 9 132 2
M  V30 208 9 178 2
M  V30 END BOND
M  V30 END CTAB
M  END

$$$$
