
     RDKit          3D

  0  0  0  0  0  0  0  0  0  0999 V3000
M  V30 BEGIN CTAB
M  V30 COUNTS 186 208 0 0 0
M  V30 BEGIN ATOM
M  V30 1 Pd -1.3541 4.7480 4.8803 0 CHG=2
M  V30 2 Pd 1.4141 -4.7491 -4.8625 0 CHG=2
M  V30 3 C -2.0257 2.1514 -4.8056 0
M  V30 4 C -1.7550 1.3437 -5.6647 0
M  V30 5 C -1.3737 0.4062 -6.6426 0
M  V30 6 C -1.4174 0.7193 -7.9903 0
M  V30 7 C -0.9814 -0.1937 -8.9573 0
M  V30 8 C -0.4765 -1.4170 -8.5974 0
M  V30 9 C -0.4190 -1.7768 -7.2341 0
M  V30 10 C 0.1319 -2.9962 -6.7954 0
M  V30 11 N 0.1861 -3.3338 -5.5244 0
M  V30 12 C -0.3397 -2.5132 -4.5800 0
M  V30 13 C -0.8709 -1.2961 -4.8973 0
M  V30 14 C -0.8965 -0.8739 -6.2419 0
M  V30 15 H -1.7882 1.6853 -8.2981 0
M  V30 16 H -1.0350 0.0835 -9.9988 0
M  V30 17 H -0.1220 -2.1086 -9.3449 0
M  V30 18 H 0.5434 -3.7013 -7.5134 0
M  V30 19 H -0.3069 -2.8901 -3.5596 0
M  V30 20 H -1.2687 -0.6450 -4.1358 0
M  V30 21 C -2.3239 3.0830 -3.7931 0
M  V30 22 C -2.7964 4.3592 -4.1206 0
M  V30 23 C -3.0824 5.2681 -3.1260 0
M  V30 24 C -2.8992 4.9223 -1.7814 0
M  V30 25 C -2.4220 3.6477 -1.4550 0
M  V30 26 C -2.1397 2.7379 -2.4486 0
M  V30 27 H -2.9394 4.6254 -5.1573 0
M  V30 28 H -3.4513 6.2513 -3.3775 0
M  V30 29 H -2.2915 3.3819 -0.4184 0
M  V30 30 H -1.7790 1.7526 -2.1997 0
M  V30 31 C -3.2245 5.8453 -0.7698 0
M  V30 32 C -3.5302 6.6262 0.1032 0
M  V30 33 C -3.9870 7.5349 1.0744 0
M  V30 34 C -4.7887 8.5982 0.6970 0
M  V30 35 C -5.3197 9.4745 1.6481 0
M  V30 36 C -5.0772 9.2954 2.9877 0
M  V30 37 C -4.2596 8.2351 3.4175 0
M  V30 38 C -3.9825 7.9841 4.7806 0
M  V30 39 C -3.1633 6.9499 5.1283 0
M  V30 40 N -2.5705 6.1581 4.2007 0
M  V30 41 C -2.8234 6.3448 2.9203 0
M  V30 42 C -3.6814 7.3545 2.4574 0
M  V30 43 H -5.0162 8.7441 -0.3480 0
M  V30 44 H -5.9407 10.2930 1.3171 0
M  V30 45 H -5.5078 9.9597 3.7205 0
M  V30 46 H -4.4256 8.6142 5.5351 0
M  V30 47 H -2.9482 6.7154 6.1693 0
M  V30 48 H -2.3290 5.6841 2.2114 0
M  V30 49 C 4.2873 2.1784 -3.0508 0
M  V30 50 C 4.4928 1.3754 -3.9321 0
M  V30 51 C 4.6652 0.4415 -4.9715 0
M  V30 52 C 5.3826 0.7615 -6.1109 0
M  V30 53 C 5.4989 -0.1478 -7.1688 0
M  V30 54 C 4.8888 -1.3748 -7.1162 0
M  V30 55 C 4.1559 -1.7433 -5.9679 0
M  V30 56 C 3.4718 -2.9698 -5.8677 0
M  V30 57 N 2.7924 -3.3183 -4.7953 0
M  V30 58 C 2.7665 -2.5013 -3.7123 0
M  V30 59 C 3.3711 -1.2769 -3.7179 0
M  V30 60 C 4.0611 -0.8436 -4.8682 0
M  V30 61 H 5.8515 1.7308 -6.1870 0
M  V30 62 H 6.0682 0.1358 -8.0404 0
M  V30 63 H 4.9635 -2.0633 -7.9427 0
M  V30 64 H 3.4830 -3.6722 -6.6977 0
M  V30 65 H 2.2376 -2.8875 -2.8437 0
M  V30 66 H 3.3289 -0.6311 -2.8555 0
M  V30 67 C 4.0295 3.0927 -2.0112 0
M  V30 68 C 4.8849 4.1775 -1.7886 0
M  V30 69 C 4.6365 5.0532 -0.7547 0
M  V30 70 C 3.5243 4.8669 0.0759 0
M  V30 71 C 2.6579 3.7937 -0.1613 0
M  V30 72 C 2.9093 2.9147 -1.1902 0
M  V30 73 H 5.7454 4.3188 -2.4256 0
M  V30 74 H 5.3015 5.8850 -0.5757 0
M  V30 75 H 1.7950 3.6602 0.4710 0
M  V30 76 H 2.2464 2.0843 -1.3746 0
M  V30 77 C 3.3122 5.7409 1.1588 0
M  V30 78 C 3.1623 6.4713 2.1124 0
M  V30 79 C 3.0975 7.3166 3.2343 0
M  V30 80 C 4.0593 8.2969 3.4093 0
M  V30 81 C 4.0634 9.1096 4.5468 0
M  V30 82 C 3.1239 8.9472 5.5349 0
M  V30 83 C 2.1233 7.9685 5.3982 0
M  V30 84 C 1.1384 7.7367 6.3851 0
M  V30 85 C 0.1862 6.7807 6.1833 0
M  V30 86 N 0.1301 6.0506 5.0421 0
M  V30 87 C 1.0431 6.2227 4.1068 0
M  V30 88 C 2.0855 7.1545 4.2285 0
M  V30 89 H 4.8229 8.4282 2.6580 0
M  V30 90 H 4.8279 9.8645 4.6482 0
M  V30 91 H 3.1424 9.5620 6.4211 0
M  V30 92 H 1.1523 8.3183 7.2929 0
M  V30 93 H -0.5727 6.5613 6.9321 0
M  V30 94 H 0.9608 5.6126 3.2097 0
M  V30 95 C 1.8370 -2.2768 4.8855 0
M  V30 96 C 1.5478 -1.4724 5.7417 0
M  V30 97 C 1.1480 -0.5349 6.7128 0
M  V30 98 C 1.1118 -0.8654 8.0561 0
M  V30 99 C 0.6542 0.0494 9.0117 0
M  V30 100 C 0.2095 1.2931 8.6433 0
M  V30 101 C 0.2391 1.6727 7.2842 0
M  V30 102 C -0.2408 2.9178 6.8353 0
M  V30 103 N -0.2087 3.2765 5.5691 0
M  V30 104 C 0.3407 2.4509 4.6429 0
M  V30 105 C 0.8064 1.2095 4.9692 0
M  V30 106 C 0.7380 0.7665 6.3057 0
M  V30 107 H 1.4332 -1.8472 8.3691 0
M  V30 108 H 0.6426 -0.2429 10.0504 0
M  V30 109 H -0.1621 1.9865 9.3807 0
M  V30 110 H -0.6669 3.6270 7.5411 0
M  V30 111 H 0.3876 2.8447 3.6301 0
M  V30 112 H 1.2260 0.5575 4.2200 0
M  V30 113 C 2.1662 -3.1925 3.8674 0
M  V30 114 C 1.6865 -2.9898 2.5677 0
M  V30 115 C 2.0167 -3.8701 1.5623 0
M  V30 116 C 2.8404 -4.9693 1.8308 0
M  V30 117 C 3.3078 -5.1800 3.1343 0
M  V30 118 C 2.9722 -4.3029 4.1421 0
M  V30 119 H 1.0550 -2.1395 2.3649 0
M  V30 120 H 1.6471 -3.7175 0.5613 0
M  V30 121 H 3.9377 -6.0318 3.3429 0
M  V30 122 H 3.3370 -4.4632 5.1458 0
M  V30 123 C 3.2331 -5.8460 0.8021 0
M  V30 124 C 3.6111 -6.5802 -0.0830 0
M  V30 125 C 4.1494 -7.4332 -1.0630 0
M  V30 126 C 5.0197 -8.4426 -0.6890 0
M  V30 127 C 5.6249 -9.2649 -1.6440 0
M  V30 128 C 5.3888 -9.0835 -2.9844 0
M  V30 129 C 4.5070 -8.0748 -3.4117 0
M  V30 130 C 4.2345 -7.8228 -4.7755 0
M  V30 131 C 3.3565 -6.8376 -5.1221 0
M  V30 132 N 2.7036 -6.0963 -4.1934 0
M  V30 133 C 2.9462 -6.2872 -2.9117 0
M  V30 134 C 3.8561 -7.2501 -2.4483 0
M  V30 135 H 5.2400 -8.5898 0.3573 0
M  V30 136 H 6.2968 -10.0428 -1.3149 0
M  V30 137 H 5.8738 -9.7062 -3.7196 0
M  V30 138 H 4.7283 -8.4124 -5.5313 0
M  V30 139 H 3.1414 -6.6026 -6.1630 0
M  V30 140 H 2.4021 -5.6672 -2.2023 0
M  V30 141 C -4.3991 -2.0466 2.8796 0
M  V30 142 C -4.6221 -1.2400 3.7535 0
M  V30 143 C -4.8135 -0.3058 4.7884 0
M  V30 144 C -5.6002 -0.6056 5.8873 0
M  V30 145 C -5.7405 0.3025 6.9429 0
M  V30 146 C -5.0846 1.5068 6.9312 0
M  V30 147 C -4.2764 1.8527 5.8272 0
M  V30 148 C -3.5390 3.0510 5.7748 0
M  V30 149 N -2.7852 3.3757 4.7457 0
M  V30 150 C -2.7296 2.5630 3.6603 0
M  V30 151 C -3.3838 1.3653 3.6222 0
M  V30 152 C -4.1568 0.9559 4.7276 0
M  V30 153 H -6.1077 -1.5573 5.9317 0
M  V30 154 H -6.3660 0.0361 7.7810 0
M  V30 155 H -5.1789 2.1941 7.7568 0
M  V30 156 H -3.5688 3.7497 6.6071 0
M  V30 157 H -2.1301 2.9300 2.8294 0
M  V30 158 H -3.3171 0.7197 2.7614 0
M  V30 159 C -4.1181 -2.9780 1.8622 0
M  V30 160 C -3.2172 -2.6491 0.8419 0
M  V30 161 C -2.9325 -3.5590 -0.1508 0
M  V30 162 C -3.5446 -4.8178 -0.1496 0
M  V30 163 C -4.4447 -5.1474 0.8711 0
M  V30 164 C -4.7270 -4.2384 1.8666 0
M  V30 165 H -2.7526 -1.6758 0.8394 0
M  V30 166 H -2.2476 -3.3053 -0.9437 0
M  V30 167 H -4.9175 -6.1183 0.8712 0
M  V30 168 H -5.4224 -4.4921 2.6528 0
M  V30 169 C -3.2862 -5.7401 -1.1812 0
M  V30 170 C -3.0838 -6.5199 -2.0845 0
M  V30 171 C -2.9573 -7.4241 -3.1542 0
M  V30 172 C -3.8647 -8.4608 -3.2880 0
M  V30 173 C -3.8102 -9.3305 -4.3813 0
M  V30 174 C -2.8661 -9.1706 -5.3655 0
M  V30 175 C -1.9169 -8.1377 -5.2666 0
M  V30 176 C -0.9290 -7.9073 -6.2509 0
M  V30 177 C -0.0243 -6.8999 -6.0828 0
M  V30 178 N -0.0165 -6.1167 -4.9757 0
M  V30 179 C -0.9370 -6.2844 -4.0467 0
M  V30 180 C -1.9367 -7.2651 -4.1397 0
M  V30 181 H -4.6332 -8.5905 -2.5415 0
M  V30 182 H -4.5342 -10.1279 -4.4526 0
M  V30 183 H -2.8417 -9.8293 -6.2194 0
M  V30 184 H -0.9022 -8.5314 -7.1298 0
M  V30 185 H 0.7342 -6.6811 -6.8321 0
M  V30 186 H -0.8951 -5.6316 -3.1776 0
M  V30 END ATOM
M  V30 BEGIN BOND
M  V30 1 3 3 4
M  V30 2 1 4 5
M  V30 3 2 5 6
M  V30 4 1 6 7
M  V30 5 2 7 8
M  V30 6 1 8 9
M  V30 7 2 9 10
M  V30 8 1 10 11
M  V30 9 2 11 12
M  V30 10 1 12 13
M  V30 11 2 13 14
M  V30 12 1 14 5
M  V30 13 1 14 9
M  V30 14 1 6 15
M  V30 15 1 7 16
M  V30 16 1 8 17
M  V30 17 1 10 18
M  V30 18 1 12 19
M  V30 19 1 13 20
M  V30 20 2 21 22
M  V30 21 1 22 23
M  V30 22 2 23 24
M  V30 23 1 24 25
M  V30 24 2 25 26
M  V30 25 1 26 21
M  V30 26 1 22 27
M  V30 27 1 23 28
M  V30 28 1 25 29
M  V30 29 1 26 30
M  V30 30 3 31 32
M  V30 31 1 32 33
M  V30 32 2 33 34
M  V30 33 1 34 35
M  V30 34 2 35 36
M  V30 35 1 36 37
M  V30 36 2 37 38
M  V30 37 1 38 39
M  V30 38 2 39 40
M  V30 39 1 40 41
M  V30 40 2 41 42
M  V30 41 1 42 33
M  V30 42 1 42 37
M  V30 43 1 34 43
M  V30 44 1 35 44
M  V30 45 1 36 45
M  V30 46 1 38 46
M  V30 47 1 39 47
M  V30 48 1 41 48
M  V30 49 1 3 21
M  V30 50 1 24 31
M  V30 51 3 49 50
M  V30 52 1 50 51
M  V30 53 2 51 52
M  V30 54 1 52 53
M  V30 55 2 53 54
M  V30 56 1 54 55
M  V30 57 2 55 56
M  V30 58 1 56 57
M  V30 59 2 57 58
M  V30 60 1 58 59
M  V30 61 2 59 60
M  V30 62 1 60 51
M  V30 63 1 60 55
M  V30 64 1 52 61
M  V30 65 1 53 62
M  V30 66 1 54 63
M  V30 67 1 56 64
M  V30 68 1 58 65
M  V30 69 1 59 66
M  V30 70 2 67 68
M  V30 71 1 68 69
M  V30 72 2 69 70
M  V30 73 1 70 71
M  V30 74 2 71 72
M  V30 75 1 72 67
M  V30 76 1 68 73
M  V30 77 1 69 74
M  V30 78 1 71 75
M  V30 79 1 72 76
M  V30 80 3 77 78
M  V30 81 1 78 79
M  V30 82 2 79 80
M  V30 83 1 80 81
M  V30 84 2 81 82
M  V30 85 1 82 83
M  V30 86 2 83 84
M  V30 87 1 84 85
M  V30 88 2 85 86
M  V30 89 1 86 87
M  V30 90 2 87 88
M  V30 91 1 88 79
M  V30 92 1 88 83
M  V30 93 1 80 89
M  V30 94 1 81 90
M  V30 95 1 82 91
M  V30 96 1 84 92
M  V30 97 1 85 93
M  V30 98 1 87 94
M  V30 99 1 49 67
M  V30 100 1 70 77
M  V30 101 3 95 96
M  V30 102 1 96 97
M  V30 103 2 97 98
M  V30 104 1 98 99
M  V30 105 2 99 100
M  V30 106 1 100 101
M  V30 107 2 101 102
M  V30 108 1 102 103
M  V30 109 2 103 104
M  V30 110 1 104 105
M  V30 111 2 105 106
M  V30 112 1 106 97
M  V30 113 1 106 101
M  V30 114 1 98 107
M  V30 115 1 99 108
M  V30 116 1 100 109
M  V30 117 1 102 110
M  V30 118 1 104 111
M  V30 119 1 105 112
M  V30 120 2 113 114
M  V30 121 1 114 115
M  V30 122 2 115 116
M  V30 123 1 116 117
M  V30 124 2 117 118
M  V30 125 1 118 113
M  V30 126 1 114 119
M  V30 127 1 115 120
M  V30 128 1 117 121
M  V30 129 1 118 122
M  V30 130 3 123 124
M  V30 131 1 124 125
M  V30 132 2 125 126
M  V30 133 1 126 127
M  V30 134 2 127 128
M  V30 135 1 128 129
M  V30 136 2 129 130
M  V30 137 1 130 131
M  V30 138 2 131 132
M  V30 139 1 132 133
M  V30 140 2 133 134
M  V30 141 1 134 125
M  V30 142 1 134 129
M  V30 143 1 126 135
M  V30 144 1 127 136
M  V30 145 1 128 137
M  V30 146 1 130 138
M  V30 147 1 131 139
M  V30 148 1 133 140
M  V30 149 1 95 113
M  V30 150 1 116 123
M  V30 151 3 141 142
M  V30 152 1 142 143
M  V30 153 2 143 144
M  V30 154 1 144 145
M  V30 155 2 145 146
M  V30 156 1 146 147
M  V30 157 2 147 148
M  V30 158 1 148 149
M  V30 159 2 149 150
M  V30 160 1 150 151
M  V30 161 2 151 152
M  V30 162 1 152 143
M  V30 163 1 152 147
M  V30 164 1 144 153
M  V30 165 1 145 154
M  V30 166 1 146 155
M  V30 167 1 148 156
M  V30 168 1 150 157
M  V30 169 1 151 158
M  V30 170 2 159 160
M  V30 171 1 160 161
M  V30 172 2 161 162
M  V30 173 1 162 163
M  V30 174 2 163 164
M  V30 175 1 164 159
M  V30 176 1 160 165
M  V30 177 1 161 166
M  V30 178 1 163 167
M  V30 179 1 164 168
M  V30 180 3 169 170
M  V30 181 1 170 171
M  V30 182 2 171 172
M  V30 183 1 172 173
M  V30 184 2 173 174
M  V30 185 1 174 175
M  V30 186 2 175 176
M  V30 187 1 176 177
M  V30 188 2 177 178
M  V30 189 1 178 179
M  V30 190 2 179 180
M  V30 191 1 180 171
M  V30 192 1 180 175
M  V30 193 1 172 181
M  V30 194 1 173 182
M  V30 195 1 174 183
M  V30 196 1 176 184
M  V30 197 1 177 185
M  V30 198 1 179 186
M  V30 199 1 141 159
M  V30 200 1 162 169
M  V30 201 9 40 1
M  V30 202 9 86 1
M  V30 203 9 103 1
M  V30 204 9 149 1
M  V30 205 9 11 2
M  V30 206 9 57 2
M  V30 207 9 132 2
M  V30 208 9 178 2
M  V30 END BOND
M  V30 END CTAB
M  END

$$$$
