
     RDKit          3D

  0  0  0  0  0  0  0  0  0  0999 V3000
M  V30 BEGIN CTAB
M  V30 COUNTS 186 208 0 0 0
M  V30 BEGIN ATOM
M  V30 1 Pd -3.1927 6.0556 1.1980 0 CHG=2
M  V30 2 Pd 3.1093 -6.0723 -1.2467 0 CHG=2
M  V30 3 C 0.7809 -2.3222 5.0752 0
M  V30 4 C 1.2973 -3.3960 4.8658 0
M  V30 5 C 1.8462 -4.6595 4.5779 0
M  V30 6 C 1.9006 -5.6528 5.5405 0
M  V30 7 C 2.3922 -6.9271 5.2350 0
M  V30 8 C 2.8133 -7.2368 3.9670 0
M  V30 9 C 2.7785 -6.2511 2.9577 0
M  V30 10 C 3.1505 -6.5175 1.6261 0
M  V30 11 N 3.1192 -5.5994 0.6834 0
M  V30 12 C 2.7584 -4.3266 0.9858 0
M  V30 13 C 2.3525 -3.9709 2.2399 0
M  V30 14 C 2.3186 -4.9386 3.2642 0
M  V30 15 H 1.5526 -5.4414 6.5403 0
M  V30 16 H 2.4239 -7.6747 6.0125 0
M  V30 17 H 3.1712 -8.2262 3.7313 0
M  V30 18 H 3.4724 -7.5146 1.3361 0
M  V30 19 H 2.8135 -3.6153 0.1640 0
M  V30 20 H 2.0505 -2.9605 2.4633 0
M  V30 21 C 0.1714 -1.0728 5.2978 0
M  V30 22 C -0.3147 -0.7371 6.5667 0
M  V30 23 C -0.9140 0.4850 6.7778 0
M  V30 24 C -1.0436 1.3977 5.7237 0
M  V30 25 C -0.5617 1.0591 4.4539 0
M  V30 26 C 0.0406 -0.1605 4.2437 0
M  V30 27 H -0.2132 -1.4400 7.3802 0
M  V30 28 H -1.2851 0.7467 7.7574 0
M  V30 29 H -0.6548 1.7683 3.6473 0
M  V30 30 H 0.4194 -0.4210 3.2682 0
M  V30 31 C -1.6279 2.6571 5.9549 0
M  V30 32 C -2.1038 3.7517 6.1568 0
M  V30 33 C -2.5785 5.0384 6.4679 0
M  V30 34 C -2.6775 5.4327 7.7910 0
M  V30 35 C -3.0740 6.7299 8.1295 0
M  V30 36 C -3.3591 7.6580 7.1586 0
M  V30 37 C -3.2827 7.2997 5.8008 0
M  V30 38 C -3.5469 8.2092 4.7516 0
M  V30 39 C -3.4751 7.7904 3.4551 0
M  V30 40 N -3.1843 6.5068 3.1284 0
M  V30 41 C -2.9075 5.6346 4.0776 0
M  V30 42 C -2.9149 5.9708 5.4402 0
M  V30 43 H -2.4323 4.7293 8.5721 0
M  V30 44 H -3.1403 7.0020 9.1718 0
M  V30 45 H -3.6421 8.6648 7.4230 0
M  V30 46 H -3.8014 9.2300 4.9880 0
M  V30 47 H -3.6499 8.4707 2.6235 0
M  V30 48 H -2.6762 4.6172 3.7698 0
M  V30 49 C -3.9965 -3.9743 0.9061 0
M  V30 50 C -3.4333 -5.0329 0.7453 0
M  V30 51 C -2.7289 -6.2433 0.6001 0
M  V30 52 C -3.2523 -7.4374 1.0643 0
M  V30 53 C -2.5220 -8.6281 0.9744 0
M  V30 54 C -1.2584 -8.6435 0.4421 0
M  V30 55 C -0.6922 -7.4487 -0.0512 0
M  V30 56 C 0.6149 -7.3885 -0.5712 0
M  V30 57 N 1.1430 -6.2764 -1.0374 0
M  V30 58 C 0.4080 -5.1363 -1.0689 0
M  V30 59 C -0.8583 -5.0804 -0.5610 0
M  V30 60 C -1.4385 -6.2369 -0.0015 0
M  V30 61 H -4.2353 -7.4472 1.5103 0
M  V30 62 H -2.9636 -9.5403 1.3448 0
M  V30 63 H -0.6914 -9.5595 0.3946 0
M  V30 64 H 1.2367 -8.2803 -0.5935 0
M  V30 65 H 0.8921 -4.2765 -1.5266 0
M  V30 66 H -1.4252 -4.1634 -0.5781 0
M  V30 67 C -4.6273 -2.7275 1.0818 0
M  V30 68 C -6.0149 -2.6483 1.2443 0
M  V30 69 C -6.6248 -1.4221 1.3926 0
M  V30 70 C -5.8604 -0.2486 1.3874 0
M  V30 71 C -4.4704 -0.3310 1.2461 0
M  V30 72 C -3.8612 -1.5556 1.0913 0
M  V30 73 H -6.6054 -3.5524 1.2435 0
M  V30 74 H -7.6966 -1.3590 1.5081 0
M  V30 75 H -3.8827 0.5727 1.2558 0
M  V30 76 H -2.7908 -1.6238 0.9786 0
M  V30 77 C -6.5033 0.9995 1.4893 0
M  V30 78 C -7.0686 2.0690 1.5342 0
M  V30 79 C -7.8026 3.2683 1.5203 0
M  V30 80 C -9.1848 3.2258 1.5847 0
M  V30 81 C -9.9477 4.3946 1.5055 0
M  V30 82 C -9.3493 5.6196 1.3422 0
M  V30 83 C -7.9475 5.7130 1.2779 0
M  V30 84 C -7.2692 6.9390 1.0922 0
M  V30 85 C -5.9056 6.9620 1.0536 0
M  V30 86 N -5.1622 5.8398 1.2164 0
M  V30 87 C -5.7580 4.6740 1.3712 0
M  V30 88 C -7.1543 4.5339 1.3909 0
M  V30 89 H -9.6800 2.2725 1.6890 0
M  V30 90 H -11.0231 4.3227 1.5611 0
M  V30 91 H -9.9418 6.5172 1.2603 0
M  V30 92 H -7.8394 7.8471 0.9790 0
M  V30 93 H -5.3528 7.8852 0.8897 0
M  V30 94 H -5.1219 3.8001 1.4946 0
M  V30 95 C -0.6146 2.4423 -5.1129 0
M  V30 96 C -1.1153 3.5218 -4.8946 0
M  V30 97 C -1.6500 4.7889 -4.5936 0
M  V30 98 C -1.6353 5.8127 -5.5245 0
M  V30 99 C -2.1109 7.0888 -5.2005 0
M  V30 100 C -2.5869 7.3678 -3.9451 0
M  V30 101 C -2.6279 6.3486 -2.9697 0
M  V30 102 C -3.0658 6.5793 -1.6516 0
M  V30 103 N -3.1106 5.6289 -0.7418 0
M  V30 104 C -2.7662 4.3580 -1.0694 0
M  V30 105 C -2.2990 4.0347 -2.3111 0
M  V30 106 C -2.1832 5.0359 -3.2966 0
M  V30 107 H -1.2426 5.6252 -6.5123 0
M  V30 108 H -2.0859 7.8617 -5.9531 0
M  V30 109 H -2.9323 8.3579 -3.6940 0
M  V30 110 H -3.3779 7.5748 -1.3449 0
M  V30 111 H -2.8904 3.6187 -0.2814 0
M  V30 112 H -2.0140 3.0234 -2.5529 0
M  V30 113 C -0.0370 1.1778 -5.3379 0
M  V30 114 C 0.3920 0.4058 -4.2513 0
M  V30 115 C 0.9424 -0.8385 -4.4601 0
M  V30 116 C 1.0698 -1.3435 -5.7592 0
M  V30 117 C 0.6543 -0.5647 -6.8467 0
M  V30 118 C 0.1095 0.6832 -6.6387 0
M  V30 119 H 0.2885 0.7976 -3.2520 0
M  V30 120 H 1.2753 -1.4340 -3.6256 0
M  V30 121 H 0.7589 -0.9515 -7.8494 0
M  V30 122 H -0.2152 1.2811 -7.4773 0
M  V30 123 C 1.5778 -2.6365 -5.9849 0
M  V30 124 C 1.9729 -3.7630 -6.1862 0
M  V30 125 C 2.3533 -5.0806 -6.4972 0
M  V30 126 C 2.3676 -5.4957 -7.8178 0
M  V30 127 C 2.6755 -6.8167 -8.1562 0
M  V30 128 C 2.9546 -7.7480 -7.1865 0
M  V30 129 C 2.9584 -7.3712 -5.8317 0
M  V30 130 C 3.2188 -8.2832 -4.7837 0
M  V30 131 C 3.2218 -7.8489 -3.4903 0
M  V30 132 N 3.0080 -6.5497 -3.1670 0
M  V30 133 C 2.7411 -5.6726 -4.1144 0
M  V30 134 C 2.6796 -6.0201 -5.4728 0
M  V30 135 H 2.1282 -4.7881 -8.5968 0
M  V30 136 H 2.6783 -7.1037 -9.1966 0
M  V30 137 H 3.1710 -8.7713 -7.4499 0
M  V30 138 H 3.4101 -9.3182 -5.0184 0
M  V30 139 H 3.3963 -8.5290 -2.6584 0
M  V30 140 H 2.5728 -4.6421 -3.8085 0
M  V30 141 C 3.9762 3.9256 -0.6757 0
M  V30 142 C 3.4243 4.9878 -0.4995 0
M  V30 143 C 2.7338 6.2039 -0.3420 0
M  V30 144 C 3.2994 7.4047 -0.7353 0
M  V30 145 C 2.5872 8.6050 -0.6326 0
M  V30 146 C 1.2996 8.6248 -0.1610 0
M  V30 147 C 0.6881 7.4228 0.2547 0
M  V30 148 C -0.6456 7.3674 0.7025 0
M  V30 149 N -1.2176 6.2474 1.0913 0
M  V30 150 C -0.5060 5.0920 1.1117 0
M  V30 151 C 0.7847 5.0324 0.6707 0
M  V30 152 C 1.4149 6.1998 0.1940 0
M  V30 153 H 4.3031 7.4125 -1.1325 0
M  V30 154 H 3.0624 9.5223 -0.9446 0
M  V30 155 H 0.7475 9.5493 -0.1038 0
M  V30 156 H -1.2522 8.2691 0.7306 0
M  V30 157 H -1.0333 4.2227 1.5000 0
M  V30 158 H 1.3339 4.1047 0.6745 0
M  V30 159 C 4.5985 2.6806 -0.8867 0
M  V30 160 C 3.9186 1.4969 -0.5753 0
M  V30 161 C 4.5191 0.2767 -0.7873 0
M  V30 162 C 5.8151 0.2108 -1.3118 0
M  V30 163 C 6.4950 1.3944 -1.6244 0
M  V30 164 C 5.8929 2.6155 -1.4157 0
M  V30 165 H 2.9229 1.5507 -0.1644 0
M  V30 166 H 4.0026 -0.6364 -0.5388 0
M  V30 167 H 7.4952 1.3433 -2.0281 0
M  V30 168 H 6.4179 3.5281 -1.6552 0
M  V30 169 C 6.4497 -1.0319 -1.4975 0
M  V30 170 C 7.0030 -2.1003 -1.6293 0
M  V30 171 C 7.7247 -3.3043 -1.7147 0
M  V30 172 C 9.1001 -3.2712 -1.8669 0
M  V30 173 C 9.8530 -4.4491 -1.8796 0
M  V30 174 C 9.2523 -5.6739 -1.7224 0
M  V30 175 C 7.8563 -5.7573 -1.5752 0
M  V30 176 C 7.1763 -6.9831 -1.3934 0
M  V30 177 C 5.8168 -6.9954 -1.2780 0
M  V30 178 N 5.0771 -5.8619 -1.3622 0
M  V30 179 C 5.6762 -4.6964 -1.5068 0
M  V30 180 C 7.0710 -4.5680 -1.5966 0
M  V30 181 H 9.5985 -2.3190 -1.9649 0
M  V30 182 H 10.9237 -4.3849 -2.0005 0
M  V30 183 H 9.8391 -6.5790 -1.7093 0
M  V30 184 H 7.7420 -7.8998 -1.3450 0
M  V30 185 H 5.2648 -7.9190 -1.1140 0
M  V30 186 H 5.0441 -3.8131 -1.5660 0
M  V30 END ATOM
M  V30 BEGIN BOND
M  V30 1 3 3 4
M  V30 2 1 4 5
M  V30 3 2 5 6
M  V30 4 1 6 7
M  V30 5 2 7 8
M  V30 6 1 8 9
M  V30 7 2 9 10
M  V30 8 1 10 11
M  V30 9 2 11 12
M  V30 10 1 12 13
M  V30 11 2 13 14
M  V30 12 1 14 5
M  V30 13 1 14 9
M  V30 14 1 6 15
M  V30 15 1 7 16
M  V30 16 1 8 17
M  V30 17 1 10 18
M  V30 18 1 12 19
M  V30 19 1 13 20
M  V30 20 2 21 22
M  V30 21 1 22 23
M  V30 22 2 23 24
M  V30 23 1 24 25
M  V30 24 2 25 26
M  V30 25 1 26 21
M  V30 26 1 22 27
M  V30 27 1 23 28
M  V30 28 1 25 29
M  V30 29 1 26 30
M  V30 30 3 31 32
M  V30 31 1 32 33
M  V30 32 2 33 34
M  V30 33 1 34 35
M  V30 34 2 35 36
M  V30 35 1 36 37
M  V30 36 2 37 38
M  V30 37 1 38 39
M  V30 38 2 39 40
M  V30 39 1 40 41
M  V30 40 2 41 42
M  V30 41 1 42 33
M  V30 42 1 42 37
M  V30 43 1 34 43
M  V30 44 1 35 44
M  V30 45 1 36 45
M  V30 46 1 38 46
M  V30 47 1 39 47
M  V30 48 1 41 48
M  V30 49 1 3 21
M  V30 50 1 24 31
M  V30 51 3 49 50
M  V30 52 1 50 51
M  V30 53 2 51 52
M  V30 54 1 52 53
M  V30 55 2 53 54
M  V30 56 1 54 55
M  V30 57 2 55 56
M  V30 58 1 56 57
M  V30 59 2 57 58
M  V30 60 1 58 59
M  V30 61 2 59 60
M  V30 62 1 60 51
M  V30 63 1 60 55
M  V30 64 1 52 61
M  V30 65 1 53 62
M  V30 66 1 54 63
M  V30 67 1 56 64
M  V30 68 1 58 65
M  V30 69 1 59 66
M  V30 70 2 67 68
M  V30 71 1 68 69
M  V30 72 2 69 70
M  V30 73 1 70 71
M  V30 74 2 71 72
M  V30 75 1 72 67
M  V30 76 1 68 73
M  V30 77 1 69 74
M  V30 78 1 71 75
M  V30 79 1 72 76
M  V30 80 3 77 78
M  V30 81 1 78 79
M  V30 82 2 79 80
M  V30 83 1 80 81
M  V30 84 2 81 82
M  V30 85 1 82 83
M  V30 86 2 83 84
M  V30 87 1 84 85
M  V30 88 2 85 86
M  V30 89 1 86 87
M  V30 90 2 87 88
M  V30 91 1 88 79
M  V30 92 1 88 83
M  V30 93 1 80 89
M  V30 94 1 81 90
M  V30 95 1 82 91
M  V30 96 1 84 92
M  V30 97 1 85 93
M  V30 98 1 87 94
M  V30 99 1 49 67
M  V30 100 1 70 77
M  V30 101 3 95 96
M  V30 102 1 96 97
M  V30 103 2 97 98
M  V30 104 1 98 99
M  V30 105 2 99 100
M  V30 106 1 100 101
M  V30 107 2 101 102
M  V30 108 1 102 103
M  V30 109 2 103 104
M  V30 110 1 104 105
M  V30 111 2 105 106
M  V30 112 1 106 97
M  V30 113 1 106 101
M  V30 114 1 98 107
M  V30 115 1 99 108
M  V30 116 1 100 109
M  V30 117 1 102 110
M  V30 118 1 104 111
M  V30 119 1 105 112
M  V30 120 2 113 114
M  V30 121 1 114 115
M  V30 122 2 115 116
M  V30 123 1 116 117
M  V30 124 2 117 118
M  V30 125 1 118 113
M  V30 126 1 114 119
M  V30 127 1 115 120
M  V30 128 1 117 121
M  V30 129 1 118 122
M  V30 130 3 123 124
M  V30 131 1 124 125
M  V30 132 2 125 126
M  V30 133 1 126 127
M  V30 134 2 127 128
M  V30 135 1 128 129
M  V30 136 2 129 130
M  V30 137 1 130 131
M  V30 138 2 131 132
M  V30 139 1 132 133
M  V30 140 2 133 134
M  V30 141 1 134 125
M  V30 142 1 134 129
M  V30 143 1 126 135
M  V30 144 1 127 136
M  V30 145 1 128 137
M  V30 146 1 130 138
M  V30 147 1 131 139
M  V30 148 1 133 140
M  V30 149 1 95 113
M  V30 150 1 116 123
M  V30 151 3 141 142
M  V30 152 1 142 143
M  V30 153 2 143 144
M  V30 154 1 144 145
M  V30 155 2 145 146
M  V30 156 1 146 147
M  V30 157 2 147 148
M  V30 158 1 148 149
M  V30 159 2 149 150
M  V30 160 1 150 151
M  V30 161 2 151 152
M  V30 162 1 152 143
M  V30 163 1 152 147
M  V30 164 1 144 153
M  V30 165 1 145 154
M  V30 166 1 146 155
M  V30 167 1 148 156
M  V30 168 1 150 157
M  V30 169 1 151 158
M  V30 170 2 159 160
M  V30 171 1 160 161
M  V30 172 2 161 162
M  V30 173 1 162 163
M  V30 174 2 163 164
M  V30 175 1 164 159
M  V30 176 1 160 165
M  V30 177 1 161 166
M  V30 178 1 163 167
M  V30 179 1 164 168
M  V30 180 3 169 170
M  V30 181 1 170 171
M  V30 182 2 171 172
M  V30 183 1 172 173
M  V30 184 2 173 174
M  V30 185 1 174 175
M  V30 186 2 175 176
M  V30 187 1 176 177
M  V30 188 2 177 178
M  V30 189 1 178 179
M  V30 190 2 179 180
M  V30 191 1 180 171
M  V30 192 1 180 175
M  V30 193 1 172 181
M  V30 194 1 173 182
M  V30 195 1 174 183
M  V30 196 1 176 184
M  V30 197 1 177 185
M  V30 198 1 179 186
M  V30 199 1 141 159
M  V30 200 1 162 169
M  V30 201 9 40 1
M  V30 202 9 86 1
M  V30 203 9 103 1
M  V30 204 9 149 1
M  V30 205 9 11 2
M  V30 206 9 57 2
M  V30 207 9 132 2
M  V30 208 9 178 2
M  V30 END BOND
M  V30 END CTAB
M  END

$$$$
