
     RDKit          3D

  0  0  0  0  0  0  0  0  0  0999 V3000
M  V30 BEGIN CTAB
M  V30 COUNTS 186 208 0 0 0
M  V30 BEGIN ATOM
M  V30 1 Pd 0.7364 6.0490 2.1400 0 CHG=2
M  V30 2 Pd -1.5236 -6.5339 -3.2769 0 CHG=2
M  V30 3 C 4.7486 -2.4129 -1.5082 0
M  V30 4 C 4.5575 -3.5241 -1.9468 0
M  V30 5 C 4.2942 -4.8295 -2.4021 0
M  V30 6 C 5.2922 -5.7879 -2.4450 0
M  V30 7 C 5.0144 -7.1009 -2.8416 0
M  V30 8 C 3.7409 -7.4833 -3.1776 0
M  V30 9 C 2.6958 -6.5355 -3.1514 0
M  V30 10 C 1.3593 -6.8740 -3.4378 0
M  V30 11 N 0.3832 -5.9914 -3.4144 0
M  V30 12 C 0.6514 -4.6880 -3.1479 0
M  V30 13 C 1.9085 -4.2612 -2.8292 0
M  V30 14 C 2.9713 -5.1863 -2.7888 0
M  V30 15 H 6.2984 -5.5179 -2.1621 0
M  V30 16 H 5.8189 -7.8197 -2.8674 0
M  V30 17 H 3.5280 -8.5014 -3.4620 0
M  V30 18 H 1.0943 -7.8994 -3.6830 0
M  V30 19 H -0.2000 -4.0125 -3.2041 0
M  V30 20 H 2.1056 -3.2261 -2.6012 0
M  V30 21 C 4.9503 -1.1202 -0.9883 0
M  V30 22 C 6.2269 -0.7078 -0.5892 0
M  V30 23 C 6.4176 0.5567 -0.0772 0
M  V30 24 C 5.3353 1.4360 0.0503 0
M  V30 25 C 4.0582 1.0210 -0.3445 0
M  V30 26 C 3.8680 -0.2412 -0.8596 0
M  V30 27 H 7.0620 -1.3850 -0.6891 0
M  V30 28 H 7.4029 0.8772 0.2267 0
M  V30 29 H 3.2292 1.7042 -0.2537 0
M  V30 30 H 2.8864 -0.5609 -1.1714 0
M  V30 31 C 5.5440 2.7374 0.5441 0
M  V30 32 C 5.7247 3.8665 0.9413 0
M  V30 33 C 6.0067 5.1912 1.3200 0
M  V30 34 C 7.3161 5.6397 1.3270 0
M  V30 35 C 7.6211 6.9709 1.6258 0
M  V30 36 C 6.6288 7.8785 1.9030 0
M  V30 37 C 5.2844 7.4661 1.9182 0
M  V30 38 C 4.2137 8.3508 2.1798 0
M  V30 39 C 2.9330 7.8806 2.2001 0
M  V30 40 N 2.6443 6.5700 2.0053 0
M  V30 41 C 3.6132 5.7179 1.7340 0
M  V30 42 C 4.9600 6.1041 1.6511 0
M  V30 43 H 8.1120 4.9517 1.0856 0
M  V30 44 H 8.6537 7.2852 1.6219 0
M  V30 45 H 6.8661 8.9102 2.1102 0
M  V30 46 H 4.4209 9.3937 2.3591 0
M  V30 47 H 2.0843 8.5393 2.3754 0
M  V30 48 H 3.3356 4.6772 1.5813 0
M  V30 49 C 0.8872 -3.9144 3.5681 0
M  V30 50 C 0.7418 -5.0115 3.0796 0
M  V30 51 C 0.6112 -6.2684 2.4586 0
M  V30 52 C 1.1479 -7.4091 3.0295 0
M  V30 53 C 1.0704 -8.6460 2.3787 0
M  V30 54 C 0.4781 -8.7607 1.1474 0
M  V30 55 C -0.0898 -7.6229 0.5352 0
M  V30 56 C -0.6749 -7.6645 -0.7447 0
M  V30 57 N -1.2106 -6.6058 -1.3151 0
M  V30 58 C -1.2520 -5.4238 -0.6504 0
M  V30 59 C -0.6856 -5.2694 0.5825 0
M  V30 60 C -0.0525 -6.3656 1.2027 0
M  V30 61 H 1.6413 -7.3405 3.9871 0
M  V30 62 H 1.4982 -9.5143 2.8557 0
M  V30 63 H 0.4399 -9.7117 0.6405 0
M  V30 64 H -0.6916 -8.5939 -1.3090 0
M  V30 65 H -1.7669 -4.6136 -1.1620 0
M  V30 66 H -0.7119 -4.3199 1.0925 0
M  V30 67 C 1.0432 -2.6247 4.1119 0
M  V30 68 C 1.2699 -2.4523 5.4820 0
M  V30 69 C 1.3984 -1.1855 6.0075 0
M  V30 70 C 1.3087 -0.0634 5.1741 0
M  V30 71 C 1.1033 -0.2383 3.8008 0
M  V30 72 C 0.9683 -1.5037 3.2762 0
M  V30 73 H 1.3342 -3.3169 6.1257 0
M  V30 74 H 1.5634 -1.0508 7.0661 0
M  V30 75 H 1.0480 0.6263 3.1594 0
M  V30 76 H 0.8063 -1.6434 2.2192 0
M  V30 77 C 1.3917 1.2255 5.7336 0
M  V30 78 C 1.4211 2.3294 6.2295 0
M  V30 79 C 1.3948 3.5713 6.8888 0
M  V30 80 C 1.5283 3.6183 8.2660 0
M  V30 81 C 1.4395 4.8290 8.9591 0
M  V30 82 C 1.1980 6.0070 8.2962 0
M  V30 83 C 1.0617 6.0095 6.8965 0
M  V30 84 C 0.7941 7.1827 6.1551 0
M  V30 85 C 0.6882 7.1183 4.7963 0
M  V30 86 N 0.8595 5.9585 4.1154 0
M  V30 87 C 1.0899 4.8390 4.7726 0
M  V30 88 C 1.1833 4.7878 6.1720 0
M  V30 89 H 1.6947 2.7025 8.8124 0
M  V30 90 H 1.5502 4.8271 10.0327 0
M  V30 91 H 1.1092 6.9365 8.8362 0
M  V30 92 H 0.6725 8.1200 6.6739 0
M  V30 93 H 0.4605 7.9983 4.1974 0
M  V30 94 H 1.2171 3.9318 4.1854 0
M  V30 95 C -5.5425 2.0491 0.1135 0
M  V30 96 C -5.3436 3.1654 0.5355 0
M  V30 97 C -5.0680 4.4739 0.9758 0
M  V30 98 C -6.0389 5.4596 0.9463 0
M  V30 99 C -5.7436 6.7741 1.3259 0
M  V30 100 C -4.4787 7.1289 1.7192 0
M  V30 101 C -3.4623 6.1512 1.7723 0
M  V30 102 C -2.1348 6.4576 2.1273 0
M  V30 103 N -1.1864 5.5463 2.1833 0
M  V30 104 C -1.4791 4.2451 1.9344 0
M  V30 105 C -2.7281 3.8471 1.5520 0
M  V30 106 C -3.7576 4.8019 1.4259 0
M  V30 107 H -7.0363 5.2111 0.6168 0
M  V30 108 H -6.5270 7.5155 1.2924 0
M  V30 109 H -4.2510 8.1474 1.9902 0
M  V30 110 H -1.8534 7.4815 2.3620 0
M  V30 111 H -0.6569 3.5447 2.0630 0
M  V30 112 H -2.9427 2.8116 1.3419 0
M  V30 113 C -5.7444 0.7432 -0.3736 0
M  V30 114 C -4.6499 -0.0134 -0.8097 0
M  V30 115 C -4.8351 -1.2967 -1.2718 0
M  V30 116 C -6.1176 -1.8565 -1.3016 0
M  V30 117 C -7.2139 -1.0941 -0.8793 0
M  V30 118 C -7.0299 0.1926 -0.4230 0
M  V30 119 H -3.6633 0.4209 -0.7817 0
M  V30 120 H -3.9946 -1.8807 -1.6101 0
M  V30 121 H -8.2041 -1.5235 -0.9085 0
M  V30 122 H -7.8750 0.7782 -0.0928 0
M  V30 123 C -6.3156 -3.1865 -1.7176 0
M  V30 124 C -6.4906 -4.3423 -2.0323 0
M  V30 125 C -6.7666 -5.6919 -2.3153 0
M  V30 126 C -8.0685 -6.1557 -2.2365 0
M  V30 127 C -8.3682 -7.5051 -2.4454 0
M  V30 128 C -7.3767 -8.4156 -2.7165 0
M  V30 129 C -6.0399 -7.9898 -2.8126 0
M  V30 130 C -4.9701 -8.8768 -3.0702 0
M  V30 131 C -3.6968 -8.3960 -3.1659 0
M  V30 132 N -3.4160 -7.0749 -3.0486 0
M  V30 133 C -4.3837 -6.2183 -2.7876 0
M  V30 134 C -5.7224 -6.6114 -2.6356 0
M  V30 135 H -8.8627 -5.4638 -2.0011 0
M  V30 136 H -9.3952 -7.8301 -2.3776 0
M  V30 137 H -7.6090 -9.4595 -2.8564 0
M  V30 138 H -5.1721 -9.9298 -3.1857 0
M  V30 139 H -2.8478 -9.0544 -3.3409 0
M  V30 140 H -4.1115 -5.1687 -2.6983 0
M  V30 141 C -1.3977 3.4039 -4.7804 0
M  V30 142 C -1.2376 4.5045 -4.3040 0
M  V30 143 C -1.0956 5.7668 -3.6980 0
M  V30 144 C -1.5639 6.9141 -4.3149 0
M  V30 145 C -1.4749 8.1598 -3.6834 0
M  V30 146 C -0.9422 8.2781 -2.4252 0
M  V30 147 C -0.4492 7.1333 -1.7636 0
M  V30 148 C 0.0650 7.1785 -0.4536 0
M  V30 149 N 0.5259 6.1120 0.1649 0
M  V30 150 C 0.5579 4.9156 -0.4750 0
M  V30 151 C 0.0573 4.7586 -1.7355 0
M  V30 152 C -0.4961 5.8655 -2.4104 0
M  V30 153 H -2.0096 6.8441 -5.2955 0
M  V30 154 H -1.8462 9.0332 -4.1972 0
M  V30 155 H -0.8954 9.2370 -1.9343 0
M  V30 156 H 0.0863 8.1171 0.0945 0
M  V30 157 H 1.0061 4.0963 0.0837 0
M  V30 158 H 0.0716 3.7990 -2.2264 0
M  V30 159 C -1.5886 2.1153 -5.3139 0
M  V30 160 C -1.1971 0.9891 -4.5798 0
M  V30 161 C -1.3889 -0.2735 -5.0932 0
M  V30 162 C -1.9730 -0.4403 -6.3542 0
M  V30 163 C -2.3656 0.6857 -7.0882 0
M  V30 164 C -2.1770 1.9492 -6.5731 0
M  V30 165 H -0.7406 1.1207 -3.6116 0
M  V30 166 H -1.0790 -1.1425 -4.5354 0
M  V30 167 H -2.8153 0.5569 -8.0614 0
M  V30 168 H -2.4783 2.8174 -7.1399 0
M  V30 169 C -2.1393 -1.7265 -6.9014 0
M  V30 170 C -2.2549 -2.8318 -7.3810 0
M  V30 171 C -2.3270 -4.0812 -8.0226 0
M  V30 172 C -2.5473 -4.1404 -9.3878 0
M  V30 173 C -2.5494 -5.3630 -10.0658 0
M  V30 174 C -2.3139 -6.5408 -9.4004 0
M  V30 175 C -2.0957 -6.5308 -8.0112 0
M  V30 176 C -1.8318 -7.7036 -7.2680 0
M  V30 177 C -1.6498 -7.6260 -5.9180 0
M  V30 178 N -1.7433 -6.4521 -5.2453 0
M  V30 179 C -1.9637 -5.3329 -5.9064 0
M  V30 180 C -2.1264 -5.2960 -7.2999 0
M  V30 181 H -2.7077 -3.2257 -9.9377 0
M  V30 182 H -2.7248 -5.3708 -11.1309 0
M  V30 183 H -2.2931 -7.4799 -9.9307 0
M  V30 184 H -1.7743 -8.6517 -7.7784 0
M  V30 185 H -1.4221 -8.5064 -5.3197 0
M  V30 186 H -2.0274 -4.4143 -5.3271 0
M  V30 END ATOM
M  V30 BEGIN BOND
M  V30 1 3 3 4
M  V30 2 1 4 5
M  V30 3 2 5 6
M  V30 4 1 6 7
M  V30 5 2 7 8
M  V30 6 1 8 9
M  V30 7 2 9 10
M  V30 8 1 10 11
M  V30 9 2 11 12
M  V30 10 1 12 13
M  V30 11 2 13 14
M  V30 12 1 14 5
M  V30 13 1 14 9
M  V30 14 1 6 15
M  V30 15 1 7 16
M  V30 16 1 8 17
M  V30 17 1 10 18
M  V30 18 1 12 19
M  V30 19 1 13 20
M  V30 20 2 21 22
M  V30 21 1 22 23
M  V30 22 2 23 24
M  V30 23 1 24 25
M  V30 24 2 25 26
M  V30 25 1 26 21
M  V30 26 1 22 27
M  V30 27 1 23 28
M  V30 28 1 25 29
M  V30 29 1 26 30
M  V30 30 3 31 32
M  V30 31 1 32 33
M  V30 32 2 33 34
M  V30 33 1 34 35
M  V30 34 2 35 36
M  V30 35 1 36 37
M  V30 36 2 37 38
M  V30 37 1 38 39
M  V30 38 2 39 40
M  V30 39 1 40 41
M  V30 40 2 41 42
M  V30 41 1 42 33
M  V30 42 1 42 37
M  V30 43 1 34 43
M  V30 44 1 35 44
M  V30 45 1 36 45
M  V30 46 1 38 46
M  V30 47 1 39 47
M  V30 48 1 41 48
M  V30 49 1 3 21
M  V30 50 1 24 31
M  V30 51 3 49 50
M  V30 52 1 50 51
M  V30 53 2 51 52
M  V30 54 1 52 53
M  V30 55 2 53 54
M  V30 56 1 54 55
M  V30 57 2 55 56
M  V30 58 1 56 57
M  V30 59 2 57 58
M  V30 60 1 58 59
M  V30 61 2 59 60
M  V30 62 1 60 51
M  V30 63 1 60 55
M  V30 64 1 52 61
M  V30 65 1 53 62
M  V30 66 1 54 63
M  V30 67 1 56 64
M  V30 68 1 58 65
M  V30 69 1 59 66
M  V30 70 2 67 68
M  V30 71 1 68 69
M  V30 72 2 69 70
M  V30 73 1 70 71
M  V30 74 2 71 72
M  V30 75 1 72 67
M  V30 76 1 68 73
M  V30 77 1 69 74
M  V30 78 1 71 75
M  V30 79 1 72 76
M  V30 80 3 77 78
M  V30 81 1 78 79
M  V30 82 2 79 80
M  V30 83 1 80 81
M  V30 84 2 81 82
M  V30 85 1 82 83
M  V30 86 2 83 84
M  V30 87 1 84 85
M  V30 88 2 85 86
M  V30 89 1 86 87
M  V30 90 2 87 88
M  V30 91 1 88 79
M  V30 92 1 88 83
M  V30 93 1 80 89
M  V30 94 1 81 90
M  V30 95 1 82 91
M  V30 96 1 84 92
M  V30 97 1 85 93
M  V30 98 1 87 94
M  V30 99 1 49 67
M  V30 100 1 70 77
M  V30 101 3 95 96
M  V30 102 1 96 97
M  V30 103 2 97 98
M  V30 104 1 98 99
M  V30 105 2 99 100
M  V30 106 1 100 101
M  V30 107 2 101 102
M  V30 108 1 102 103
M  V30 109 2 103 104
M  V30 110 1 104 105
M  V30 111 2 105 106
M  V30 112 1 106 97
M  V30 113 1 106 101
M  V30 114 1 98 107
M  V30 115 1 99 108
M  V30 116 1 100 109
M  V30 117 1 102 110
M  V30 118 1 104 111
M  V30 119 1 105 112
M  V30 120 2 113 114
M  V30 121 1 114 115
M  V30 122 2 115 116
M  V30 123 1 116 117
M  V30 124 2 117 118
M  V30 125 1 118 113
M  V30 126 1 114 119
M  V30 127 1 115 120
M  V30 128 1 117 121
M  V30 129 1 118 122
M  V30 130 3 123 124
M  V30 131 1 124 125
M  V30 132 2 125 126
M  V30 133 1 126 127
M  V30 134 2 127 128
M  V30 135 1 128 129
M  V30 136 2 129 130
M  V30 137 1 130 131
M  V30 138 2 131 132
M  V30 139 1 132 133
M  V30 140 2 133 134
M  V30 141 1 134 125
M  V30 142 1 134 129
M  V30 143 1 126 135
M  V30 144 1 127 136
M  V30 145 1 128 137
M  V30 146 1 130 138
M  V30 147 1 131 139
M  V30 148 1 133 140
M  V30 149 1 95 113
M  V30 150 1 116 123
M  V30 151 3 141 142
M  V30 152 1 142 143
M  V30 153 2 143 144
M  V30 154 1 144 145
M  V30 155 2 145 146
M  V30 156 1 146 147
M  V30 157 2 147 148
M  V30 158 1 148 149
M  V30 159 2 149 150
M  V30 160 1 150 151
M  V30 161 2 151 152
M  V30 162 1 152 143
M  V30 163 1 152 147
M  V30 164 1 144 153
M  V30 165 1 145 154
M  V30 166 1 146 155
M  V30 167 1 148 156
M  V30 168 1 150 157
M  V30 169 1 151 158
M  V30 170 2 159 160
M  V30 171 1 160 161
M  V30 172 2 161 162
M  V30 173 1 162 163
M  V30 174 2 163 164
M  V30 175 1 164 159
M  V30 176 1 160 165
M  V30 177 1 161 166
M  V30 178 1 163 167
M  V30 179 1 164 168
M  V30 180 3 169 170
M  V30 181 1 170 171
M  V30 182 2 171 172
M  V30 183 1 172 173
M  V30 184 2 173 174
M  V30 185 1 174 175
M  V30 186 2 175 176
M  V30 187 1 176 177
M  V30 188 2 177 178
M  V30 189 1 178 179
M  V30 190 2 179 180
M  V30 191 1 180 171
M  V30 192 1 180 175
M  V30 193 1 172 181
M  V30 194 1 173 182
M  V30 195 1 174 183
M  V30 196 1 176 184
M  V30 197 1 177 185
M  V30 198 1 179 186
M  V30 199 1 141 159
M  V30 200 1 162 169
M  V30 201 9 40 1
M  V30 202 9 86 1
M  V30 203 9 103 1
M  V30 204 9 149 1
M  V30 205 9 11 2
M  V30 206 9 57 2
M  V30 207 9 132 2
M  V30 208 9 178 2
M  V30 END BOND
M  V30 END CTAB
M  END

$$$$
