
     RDKit          3D

  0  0  0  0  0  0  0  0  0  0999 V3000
M  V30 BEGIN CTAB
M  V30 COUNTS 186 208 0 0 0
M  V30 BEGIN ATOM
M  V30 1 Pd 1.6202 5.9162 3.7521 0 CHG=2
M  V30 2 Pd -1.0654 -5.7068 -3.3523 0 CHG=2
M  V30 3 C -1.5842 -3.6050 4.0481 0
M  V30 4 C -1.8541 -4.6086 3.4286 0
M  V30 5 C -2.2072 -5.7371 2.6654 0
M  V30 6 C -2.9921 -6.7450 3.1986 0
M  V30 7 C -3.3910 -7.8369 2.4193 0
M  V30 8 C -3.0358 -7.9295 1.0978 0
M  V30 9 C -2.2324 -6.9251 0.5172 0
M  V30 10 C -1.8732 -6.9357 -0.8443 0
M  V30 11 N -1.1236 -6.0001 -1.3877 0
M  V30 12 C -0.6281 -4.9957 -0.6214 0
M  V30 13 C -0.9398 -4.8779 0.7026 0
M  V30 14 C -1.7854 -5.8290 1.3087 0
M  V30 15 H -3.3051 -6.6834 4.2298 0
M  V30 16 H -3.9987 -8.6061 2.8705 0
M  V30 17 H -3.3635 -8.7620 0.4959 0
M  V30 18 H -2.2222 -7.7322 -1.4968 0
M  V30 19 H 0.0289 -4.2952 -1.1332 0
M  V30 20 H -0.5549 -4.0648 1.2966 0
M  V30 21 C -1.2726 -2.4250 4.7498 0
M  V30 22 C -1.6594 -2.2718 6.0863 0
M  V30 23 C -1.3555 -1.1134 6.7667 0
M  V30 24 C -0.6608 -0.0807 6.1249 0
M  V30 25 C -0.2787 -0.2328 4.7870 0
M  V30 26 C -0.5789 -1.3918 4.1080 0
M  V30 27 H -2.1935 -3.0687 6.5819 0
M  V30 28 H -1.6495 -0.9962 7.7991 0
M  V30 29 H 0.2644 0.5605 4.2993 0
M  V30 30 H -0.2793 -1.5147 3.0793 0
M  V30 31 C -0.3256 1.0865 6.8365 0
M  V30 32 C -0.0110 2.0793 7.4535 0
M  V30 33 C 0.4076 3.1665 8.2412 0
M  V30 34 C 0.3345 3.0834 9.6209 0
M  V30 35 C 0.8123 4.1169 10.4322 0
M  V30 36 C 1.3860 5.2378 9.8847 0
M  V30 37 C 1.4722 5.3712 8.4873 0
M  V30 38 C 2.0643 6.4901 7.8588 0
M  V30 39 C 2.0964 6.5664 6.4969 0
M  V30 40 N 1.5468 5.6092 5.7092 0
M  V30 41 C 1.0072 4.5383 6.2573 0
M  V30 42 C 0.9569 4.3424 7.6462 0
M  V30 43 H -0.0874 2.2003 10.0759 0
M  V30 44 H 0.7387 4.0177 11.5044 0
M  V30 45 H 1.7749 6.0228 10.5141 0
M  V30 46 H 2.4887 7.2743 8.4651 0
M  V30 47 H 2.5652 7.4029 5.9815 0
M  V30 48 H 0.5815 3.7943 5.5875 0
M  V30 49 C -5.3843 -0.2165 -0.0764 0
M  V30 50 C -5.6191 -1.2563 -0.6486 0
M  V30 51 C -5.8503 -2.4977 -1.2712 0
M  V30 52 C -7.0964 -3.0983 -1.2319 0
M  V30 53 C -7.3064 -4.3612 -1.7979 0
M  V30 54 C -6.2791 -5.0496 -2.3906 0
M  V30 55 C -4.9951 -4.4679 -2.4598 0
M  V30 56 C -3.8893 -5.1381 -3.0169 0
M  V30 57 N -2.6921 -4.5953 -3.0880 0
M  V30 58 C -2.4950 -3.3254 -2.6527 0
M  V30 59 C -3.4936 -2.6003 -2.0681 0
M  V30 60 C -4.7758 -3.1675 -1.9224 0
M  V30 61 H -7.9157 -2.5876 -0.7491 0
M  V30 62 H -8.2923 -4.7971 -1.7502 0
M  V30 63 H -6.4409 -6.0313 -2.8062 0
M  V30 64 H -3.9998 -6.1482 -3.4044 0
M  V30 65 H -1.4947 -2.9258 -2.8036 0
M  V30 66 H -3.3186 -1.5976 -1.7121 0
M  V30 67 C -5.0811 0.9907 0.5824 0
M  V30 68 C -6.0881 1.9210 0.8631 0
M  V30 69 C -5.7774 3.1089 1.4875 0
M  V30 70 C -4.4542 3.3905 1.8499 0
M  V30 71 C -3.4516 2.4499 1.5876 0
M  V30 72 C -3.7606 1.2656 0.9579 0
M  V30 73 H -7.1076 1.7065 0.5795 0
M  V30 74 H -6.5520 3.8319 1.6957 0
M  V30 75 H -2.4360 2.6631 1.8796 0
M  V30 76 H -2.9908 0.5392 0.7505 0
M  V30 77 C -4.1450 4.6298 2.4415 0
M  V30 78 C -3.8824 5.7148 2.9099 0
M  V30 79 C -3.6497 7.0185 3.3828 0
M  V30 80 C -4.7124 7.8938 3.5281 0
M  V30 81 C -4.5082 9.2168 3.9314 0
M  V30 82 C -3.2444 9.6936 4.1774 0
M  V30 83 C -2.1345 8.8395 4.0492 0
M  V30 84 C -0.8066 9.2707 4.2691 0
M  V30 85 C 0.2247 8.3866 4.1421 0
M  V30 86 N 0.0202 7.0819 3.8349 0
M  V30 87 C -1.2020 6.6458 3.6020 0
M  V30 88 C -2.3293 7.4788 3.6715 0
M  V30 89 H -5.7134 7.5495 3.3174 0
M  V30 90 H -5.3610 9.8699 4.0354 0
M  V30 91 H -3.0885 10.7207 4.4681 0
M  V30 92 H -0.6215 10.2997 4.5327 0
M  V30 93 H 1.2604 8.6908 4.2822 0
M  V30 94 H -1.3183 5.5925 3.3554 0
M  V30 95 C 2.4099 3.7362 -3.6069 0
M  V30 96 C 2.6934 4.7303 -2.9783 0
M  V30 97 C 3.0568 5.8476 -2.2026 0
M  V30 98 C 3.9064 6.8201 -2.7003 0
M  V30 99 C 4.3149 7.8966 -1.9044 0
M  V30 100 C 3.9016 8.0092 -0.6017 0
M  V30 101 C 3.0270 7.0435 -0.0591 0
M  V30 102 C 2.5987 7.0783 1.2817 0
M  V30 103 N 1.7782 6.1821 1.7884 0
M  V30 104 C 1.2767 5.1979 1.0005 0
M  V30 105 C 1.6523 5.0571 -0.3047 0
M  V30 106 C 2.5726 5.9638 -0.8687 0
M  V30 107 H 4.2657 6.7409 -3.7150 0
M  V30 108 H 4.9761 8.6371 -2.3275 0
M  V30 109 H 4.2360 8.8288 0.0139 0
M  V30 110 H 2.9505 7.8619 1.9485 0
M  V30 111 H 0.5569 4.5353 1.4759 0
M  V30 112 H 1.2577 4.2606 -0.9149 0
M  V30 113 C 2.0654 2.5681 -4.3140 0
M  V30 114 C 1.6766 1.4200 -3.6132 0
M  V30 115 C 1.3219 0.2786 -4.2959 0
M  V30 116 C 1.3399 0.2605 -5.6953 0
M  V30 117 C 1.7433 1.4045 -6.3955 0
M  V30 118 C 2.1047 2.5448 -5.7126 0
M  V30 119 H 1.6608 1.4398 -2.5351 0
M  V30 120 H 1.0242 -0.6073 -3.7588 0
M  V30 121 H 1.7638 1.3884 -7.4750 0
M  V30 122 H 2.4108 3.4281 -6.2532 0
M  V30 123 C 0.9256 -0.8801 -6.4083 0
M  V30 124 C 0.5305 -1.8405 -7.0304 0
M  V30 125 C 0.0223 -2.8857 -7.8222 0
M  V30 126 C 0.0187 -2.7607 -9.2009 0
M  V30 127 C -0.5401 -3.7510 -10.0142 0
M  V30 128 C -1.1200 -4.8696 -9.4686 0
M  V30 129 C -1.1343 -5.0432 -8.0731 0
M  V30 130 C -1.7306 -6.1609 -7.4464 0
M  V30 131 C -1.6967 -6.2759 -6.0872 0
M  V30 132 N -1.0795 -5.3585 -5.3027 0
M  V30 133 C -0.5297 -4.2915 -5.8481 0
M  V30 134 C -0.5385 -4.0586 -7.2320 0
M  V30 135 H 0.4472 -1.8792 -9.6529 0
M  V30 136 H -0.5233 -3.6200 -11.0854 0
M  V30 137 H -1.5690 -5.6216 -10.0982 0
M  V30 138 H -2.2113 -6.9129 -8.0516 0
M  V30 139 H -2.1657 -7.1121 -5.5715 0
M  V30 140 H -0.0487 -3.5802 -5.1799 0
M  V30 141 C 5.9117 0.2745 0.7197 0
M  V30 142 C 6.1542 1.3044 1.3066 0
M  V30 143 C 6.3970 2.5365 1.9417 0
M  V30 144 C 7.6651 3.0912 1.9677 0
M  V30 145 C 7.8921 4.3444 2.5477 0
M  V30 146 C 6.8615 5.0708 3.0873 0
M  V30 147 C 5.5544 4.5389 3.0850 0
M  V30 148 C 4.4457 5.2529 3.5787 0
M  V30 149 N 3.2259 4.7583 3.5781 0
M  V30 150 C 3.0038 3.4972 3.1288 0
M  V30 151 C 4.0051 2.7323 2.6032 0
M  V30 152 C 5.3154 3.2475 2.5348 0
M  V30 153 H 8.4891 2.5500 1.5280 0
M  V30 154 H 8.8950 4.7429 2.5537 0
M  V30 155 H 7.0380 6.0453 3.5139 0
M  V30 156 H 4.5728 6.2576 3.9740 0
M  V30 157 H 1.9787 3.1419 3.2149 0
M  V30 158 H 3.8127 1.7385 2.2323 0
M  V30 159 C 5.6102 -0.9147 0.0293 0
M  V30 160 C 4.2841 -1.3557 -0.0583 0
M  V30 161 C 3.9826 -2.5134 -0.7390 0
M  V30 162 C 4.9999 -3.2598 -1.3449 0
M  V30 163 C 6.3259 -2.8185 -1.2584 0
M  V30 164 C 6.6275 -1.6582 -0.5804 0
M  V30 165 H 3.5032 -0.7826 0.4157 0
M  V30 166 H 2.9641 -2.8616 -0.7994 0
M  V30 167 H 7.1106 -3.3951 -1.7252 0
M  V30 168 H 7.6503 -1.3188 -0.5124 0
M  V30 169 C 4.7040 -4.4637 -2.0118 0
M  V30 170 C 4.4499 -5.5126 -2.5599 0
M  V30 171 C 4.2242 -6.7801 -3.1259 0
M  V30 172 C 5.2926 -7.6296 -3.3556 0
M  V30 173 C 5.0928 -8.9232 -3.8469 0
M  V30 174 C 3.8286 -9.3966 -4.0984 0
M  V30 175 C 2.7135 -8.5655 -3.8900 0
M  V30 176 C 1.3853 -8.9942 -4.1133 0
M  V30 177 C 0.3492 -8.1297 -3.9113 0
M  V30 178 N 0.5486 -6.8445 -3.5272 0
M  V30 179 C 1.7711 -6.4140 -3.2851 0
M  V30 180 C 2.9032 -7.2319 -3.4239 0
M  V30 181 H 6.2940 -7.2902 -3.1399 0
M  V30 182 H 5.9497 -9.5579 -4.0142 0
M  V30 183 H 3.6769 -10.4032 -4.4553 0
M  V30 184 H 1.2036 -10.0057 -4.4399 0
M  V30 185 H -0.6862 -8.4347 -4.0516 0
M  V30 186 H 1.8841 -5.3773 -2.9757 0
M  V30 END ATOM
M  V30 BEGIN BOND
M  V30 1 3 3 4
M  V30 2 1 4 5
M  V30 3 2 5 6
M  V30 4 1 6 7
M  V30 5 2 7 8
M  V30 6 1 8 9
M  V30 7 2 9 10
M  V30 8 1 10 11
M  V30 9 2 11 12
M  V30 10 1 12 13
M  V30 11 2 13 14
M  V30 12 1 14 5
M  V30 13 1 14 9
M  V30 14 1 6 15
M  V30 15 1 7 16
M  V30 16 1 8 17
M  V30 17 1 10 18
M  V30 18 1 12 19
M  V30 19 1 13 20
M  V30 20 2 21 22
M  V30 21 1 22 23
M  V30 22 2 23 24
M  V30 23 1 24 25
M  V30 24 2 25 26
M  V30 25 1 26 21
M  V30 26 1 22 27
M  V30 27 1 23 28
M  V30 28 1 25 29
M  V30 29 1 26 30
M  V30 30 3 31 32
M  V30 31 1 32 33
M  V30 32 2 33 34
M  V30 33 1 34 35
M  V30 34 2 35 36
M  V30 35 1 36 37
M  V30 36 2 37 38
M  V30 37 1 38 39
M  V30 38 2 39 40
M  V30 39 1 40 41
M  V30 40 2 41 42
M  V30 41 1 42 33
M  V30 42 1 42 37
M  V30 43 1 34 43
M  V30 44 1 35 44
M  V30 45 1 36 45
M  V30 46 1 38 46
M  V30 47 1 39 47
M  V30 48 1 41 48
M  V30 49 1 3 21
M  V30 50 1 24 31
M  V30 51 3 49 50
M  V30 52 1 50 51
M  V30 53 2 51 52
M  V30 54 1 52 53
M  V30 55 2 53 54
M  V30 56 1 54 55
M  V30 57 2 55 56
M  V30 58 1 56 57
M  V30 59 2 57 58
M  V30 60 1 58 59
M  V30 61 2 59 60
M  V30 62 1 60 51
M  V30 63 1 60 55
M  V30 64 1 52 61
M  V30 65 1 53 62
M  V30 66 1 54 63
M  V30 67 1 56 64
M  V30 68 1 58 65
M  V30 69 1 59 66
M  V30 70 2 67 68
M  V30 71 1 68 69
M  V30 72 2 69 70
M  V30 73 1 70 71
M  V30 74 2 71 72
M  V30 75 1 72 67
M  V30 76 1 68 73
M  V30 77 1 69 74
M  V30 78 1 71 75
M  V30 79 1 72 76
M  V30 80 3 77 78
M  V30 81 1 78 79
M  V30 82 2 79 80
M  V30 83 1 80 81
M  V30 84 2 81 82
M  V30 85 1 82 83
M  V30 86 2 83 84
M  V30 87 1 84 85
M  V30 88 2 85 86
M  V30 89 1 86 87
M  V30 90 2 87 88
M  V30 91 1 88 79
M  V30 92 1 88 83
M  V30 93 1 80 89
M  V30 94 1 81 90
M  V30 95 1 82 91
M  V30 96 1 84 92
M  V30 97 1 85 93
M  V30 98 1 87 94
M  V30 99 1 49 67
M  V30 100 1 70 77
M  V30 101 3 95 96
M  V30 102 1 96 97
M  V30 103 2 97 98
M  V30 104 1 98 99
M  V30 105 2 99 100
M  V30 106 1 100 101
M  V30 107 2 101 102
M  V30 108 1 102 103
M  V30 109 2 103 104
M  V30 110 1 104 105
M  V30 111 2 105 106
M  V30 112 1 106 97
M  V30 113 1 106 101
M  V30 114 1 98 107
M  V30 115 1 99 108
M  V30 116 1 100 109
M  V30 117 1 102 110
M  V30 118 1 104 111
M  V30 119 1 105 112
M  V30 120 2 113 114
M  V30 121 1 114 115
M  V30 122 2 115 116
M  V30 123 1 116 117
M  V30 124 2 117 118
M  V30 125 1 118 113
M  V30 126 1 114 119
M  V30 127 1 115 120
M  V30 128 1 117 121
M  V30 129 1 118 122
M  V30 130 3 123 124
M  V30 131 1 124 125
M  V30 132 2 125 126
M  V30 133 1 126 127
M  V30 134 2 127 128
M  V30 135 1 128 129
M  V30 136 2 129 130
M  V30 137 1 130 131
M  V30 138 2 131 132
M  V30 139 1 132 133
M  V30 140 2 133 134
M  V30 141 1 134 125
M  V30 142 1 134 129
M  V30 143 1 126 135
M  V30 144 1 127 136
M  V30 145 1 128 137
M  V30 146 1 130 138
M  V30 147 1 131 139
M  V30 148 1 133 140
M  V30 149 1 95 113
M  V30 150 1 116 123
M  V30 151 3 141 142
M  V30 152 1 142 143
M  V30 153 2 143 144
M  V30 154 1 144 145
M  V30 155 2 145 146
M  V30 156 1 146 147
M  V30 157 2 147 148
M  V30 158 1 148 149
M  V30 159 2 149 150
M  V30 160 1 150 151
M  V30 161 2 151 152
M  V30 162 1 152 143
M  V30 163 1 152 147
M  V30 164 1 144 153
M  V30 165 1 145 154
M  V30 166 1 146 155
M  V30 167 1 148 156
M  V30 168 1 150 157
M  V30 169 1 151 158
M  V30 170 2 159 160
M  V30 171 1 160 161
M  V30 172 2 161 162
M  V30 173 1 162 163
M  V30 174 2 163 164
M  V30 175 1 164 159
M  V30 176 1 160 165
M  V30 177 1 161 166
M  V30 178 1 163 167
M  V30 179 1 164 168
M  V30 180 3 169 170
M  V30 181 1 170 171
M  V30 182 2 171 172
M  V30 183 1 172 173
M  V30 184 2 173 174
M  V30 185 1 174 175
M  V30 186 2 175 176
M  V30 187 1 176 177
M  V30 188 2 177 178
M  V30 189 1 178 179
M  V30 190 2 179 180
M  V30 191 1 180 171
M  V30 192 1 180 175
M  V30 193 1 172 181
M  V30 194 1 173 182
M  V30 195 1 174 183
M  V30 196 1 176 184
M  V30 197 1 177 185
M  V30 198 1 179 186
M  V30 199 1 141 159
M  V30 200 1 162 169
M  V30 201 9 40 1
M  V30 202 9 86 1
M  V30 203 9 103 1
M  V30 204 9 149 1
M  V30 205 9 11 2
M  V30 206 9 57 2
M  V30 207 9 132 2
M  V30 208 9 178 2
M  V30 END BOND
M  V30 END CTAB
M  END

$$$$
