
     RDKit          3D

  0  0  0  0  0  0  0  0  0  0999 V3000
M  V30 BEGIN CTAB
M  V30 COUNTS 186 208 0 0 0
M  V30 BEGIN ATOM
M  V30 1 Pd 5.2271 2.2351 -3.9844 0 CHG=2
M  V30 2 Pd -5.2352 -2.2841 3.9462 0 CHG=2
M  V30 3 C -3.4674 4.4145 0.5615 0
M  V30 4 C -4.3993 4.0158 1.2220 0
M  V30 5 C -5.4906 3.4994 1.9452 0
M  V30 6 C -6.6890 4.1881 2.0222 0
M  V30 7 C -7.7912 3.6447 2.6919 0
M  V30 8 C -7.7244 2.4038 3.2721 0
M  V30 9 C -6.5196 1.6709 3.2200 0
M  V30 10 C -6.3991 0.3731 3.7529 0
M  V30 11 N -5.2762 -0.3119 3.7057 0
M  V30 12 C -4.1625 0.2447 3.1657 0
M  V30 13 C -4.1801 1.4855 2.5964 0
M  V30 14 C -5.3778 2.2285 2.5770 0
M  V30 15 H -6.7746 5.1564 1.5529 0
M  V30 16 H -8.7076 4.2128 2.7355 0
M  V30 17 H -8.5829 1.9804 3.7685 0
M  V30 18 H -7.2543 -0.1089 4.2200 0
M  V30 19 H -3.2617 -0.3638 3.2167 0
M  V30 20 H -3.2932 1.9094 2.1539 0
M  V30 21 C -2.3784 4.8570 -0.2133 0
M  V30 22 C -2.4264 6.0969 -0.8609 0
M  V30 23 C -1.3599 6.5229 -1.6212 0
M  V30 24 C -0.2224 5.7170 -1.7537 0
M  V30 25 C -0.1772 4.4750 -1.1098 0
M  V30 26 C -1.2414 4.0508 -0.3469 0
M  V30 27 H -3.3028 6.7193 -0.7574 0
M  V30 28 H -1.3942 7.4813 -2.1174 0
M  V30 29 H 0.7040 3.8616 -1.2064 0
M  V30 30 H -1.2063 3.0976 0.1563 0
M  V30 31 C 0.8763 6.1735 -2.5057 0
M  V30 32 C 1.8339 6.5751 -3.1279 0
M  V30 33 C 2.9483 7.1290 -3.7829 0
M  V30 34 C 2.9780 8.4847 -4.0607 0
M  V30 35 C 4.1025 9.0773 -4.6426 0
M  V30 36 C 5.2192 8.3353 -4.9388 0
M  V30 37 C 5.2310 6.9523 -4.6842 0
M  V30 38 C 6.3518 6.1332 -4.9497 0
M  V30 39 C 6.2892 4.7936 -4.6984 0
M  V30 40 N 5.1651 4.2020 -4.2238 0
M  V30 41 C 4.1070 4.9358 -3.9404 0
M  V30 42 C 4.0790 6.3269 -4.1246 0
M  V30 43 H 2.1227 9.0943 -3.8120 0
M  V30 44 H 4.0900 10.1374 -4.8452 0
M  V30 45 H 6.0938 8.8002 -5.3661 0
M  V30 46 H 7.2498 6.5781 -5.3477 0
M  V30 47 H 7.1418 4.1388 -4.8698 0
M  V30 48 H 3.2285 4.4201 -3.5585 0
M  V30 49 C -4.4197 -0.6058 -3.5402 0
M  V30 50 C -5.3453 -0.9481 -2.8403 0
M  V30 51 C -6.4080 -1.2945 -1.9842 0
M  V30 52 C -7.7240 -1.2077 -2.4037 0
M  V30 53 C -8.7796 -1.4929 -1.5299 0
M  V30 54 C -8.5421 -1.8473 -0.2267 0
M  V30 55 C -7.2140 -1.9565 0.2379 0
M  V30 56 C -6.9029 -2.2751 1.5736 0
M  V30 57 N -5.6649 -2.3834 2.0079 0
M  V30 58 C -4.6272 -2.2278 1.1477 0
M  V30 59 C -4.8197 -1.8873 -0.1606 0
M  V30 60 C -6.1292 -1.7068 -0.6502 0
M  V30 61 H -7.9379 -0.9066 -3.4180 0
M  V30 62 H -9.7928 -1.4167 -1.8932 0
M  V30 63 H -9.3593 -2.0453 0.4484 0
M  V30 64 H -7.6984 -2.4358 2.2975 0
M  V30 65 H -3.6380 -2.3953 1.5680 0
M  V30 66 H -3.9849 -1.7512 -0.8293 0
M  V30 67 C -3.3232 -0.2117 -4.3311 0
M  V30 68 C -3.4155 -0.2128 -5.7274 0
M  V30 69 C -2.3297 0.1525 -6.4924 0
M  V30 70 C -1.1297 0.5324 -5.8783 0
M  V30 71 C -1.0458 0.5535 -4.4814 0
M  V30 72 C -2.1283 0.1822 -3.7167 0
M  V30 73 H -4.3389 -0.5104 -6.2015 0
M  V30 74 H -2.3966 0.1425 -7.5701 0
M  V30 75 H -0.1252 0.8591 -4.0109 0
M  V30 76 H -2.0672 0.1935 -2.6400 0
M  V30 77 C -0.0140 0.8544 -6.6739 0
M  V30 78 C 0.9517 1.0876 -7.3656 0
M  V30 79 C 2.0420 1.2747 -8.2337 0
M  V30 80 C 1.8583 1.1502 -9.6002 0
M  V30 81 C 2.9334 1.2633 -10.4866 0
M  V30 82 C 4.2085 1.4827 -10.0268 0
M  V30 83 C 4.4429 1.6224 -8.6472 0
M  V30 84 C 5.7320 1.8307 -8.1064 0
M  V30 85 C 5.8886 1.9730 -6.7586 0
M  V30 86 N 4.8350 1.9491 -5.9054 0
M  V30 87 C 3.6193 1.7363 -6.3689 0
M  V30 88 C 3.3520 1.5431 -7.7330 0
M  V30 89 H 0.8692 0.9537 -9.9848 0
M  V30 90 H 2.7518 1.1621 -11.5456 0
M  V30 91 H 5.0390 1.5486 -10.7120 0
M  V30 92 H 6.5826 1.8719 -8.7677 0
M  V30 93 H 6.8693 2.1120 -6.3075 0
M  V30 94 H 2.8048 1.7218 -5.6476 0
M  V30 95 C 3.6109 -4.3875 -0.3707 0
M  V30 96 C 4.5475 -3.9769 -1.0172 0
M  V30 97 C 5.6401 -3.4451 -1.7281 0
M  V30 98 C 6.8660 -4.0871 -1.7438 0
M  V30 99 C 7.9667 -3.5235 -2.3997 0
M  V30 100 C 7.8686 -2.3092 -3.0292 0
M  V30 101 C 6.6333 -1.6267 -3.0445 0
M  V30 102 C 6.4759 -0.3592 -3.6368 0
M  V30 103 N 5.3234 0.2767 -3.6576 0
M  V30 104 C 4.2166 -0.3058 -3.1315 0
M  V30 105 C 4.2679 -1.5189 -2.5068 0
M  V30 106 C 5.4952 -2.2060 -2.4144 0
M  V30 107 H 6.9756 -5.0324 -1.2344 0
M  V30 108 H 8.9062 -4.0543 -2.3928 0
M  V30 109 H 8.7248 -1.8692 -3.5148 0
M  V30 110 H 7.3261 0.1399 -4.0958 0
M  V30 111 H 3.2912 0.2546 -3.2440 0
M  V30 112 H 3.3833 -1.9629 -2.0792 0
M  V30 113 C 2.5051 -4.8400 0.3747 0
M  V30 114 C 1.5219 -3.9303 0.7826 0
M  V30 115 C 0.4289 -4.3658 1.4971 0
M  V30 116 C 0.2891 -5.7219 1.8139 0
M  V30 117 C 1.2803 -6.6291 1.4186 0
M  V30 118 C 2.3775 -6.1928 0.7093 0
M  V30 119 H 1.6322 -2.8870 0.5331 0
M  V30 120 H -0.3283 -3.6673 1.8141 0
M  V30 121 H 1.1759 -7.6743 1.6689 0
M  V30 122 H 3.1389 -6.8936 0.4005 0
M  V30 123 C -0.8503 -6.1910 2.4941 0
M  V30 124 C -1.8460 -6.6103 3.0402 0
M  V30 125 C -2.9988 -7.1836 3.6059 0
M  V30 126 C -3.0569 -8.5527 3.8022 0
M  V30 127 C -4.2125 -9.1624 4.2994 0
M  V30 128 C -5.3325 -8.4232 4.5902 0
M  V30 129 C -5.3184 -7.0282 4.4129 0
M  V30 130 C -6.4416 -6.2114 4.6751 0
M  V30 131 C -6.3565 -4.8614 4.4962 0
M  V30 132 N -5.2094 -4.2596 4.0960 0
M  V30 133 C -4.1461 -4.9891 3.8216 0
M  V30 134 C -4.1365 -6.3877 3.9388 0
M  V30 135 H -2.1976 -9.1585 3.5585 0
M  V30 136 H -4.2205 -10.2324 4.4410 0
M  V30 137 H -6.2294 -8.8996 4.9537 0
M  V30 138 H -7.3594 -6.6662 5.0122 0
M  V30 139 H -7.2089 -4.2063 4.6672 0
M  V30 140 H -3.2490 -4.4640 3.5005 0
M  V30 141 C 4.3149 0.8253 3.5403 0
M  V30 142 C 5.2409 1.1847 2.8495 0
M  V30 143 C 6.3072 1.5461 2.0052 0
M  V30 144 C 7.6152 1.5345 2.4585 0
M  V30 145 C 8.6784 1.8366 1.6001 0
M  V30 146 C 8.4586 2.1308 0.2788 0
M  V30 147 C 7.1394 2.1578 -0.2219 0
M  V30 148 C 6.8491 2.4048 -1.5773 0
M  V30 149 N 5.6194 2.4311 -2.0461 0
M  V30 150 C 4.5677 2.2582 -1.2061 0
M  V30 151 C 4.7416 1.9842 0.1200 0
M  V30 152 C 6.0449 1.8923 0.6494 0
M  V30 153 H 7.8166 1.2824 3.4886 0
M  V30 154 H 9.6845 1.8221 1.9902 0
M  V30 155 H 9.2828 2.3419 -0.3836 0
M  V30 156 H 7.6540 2.5755 -2.2879 0
M  V30 157 H 3.5833 2.3512 -1.6610 0
M  V30 158 H 3.8984 1.8304 0.7738 0
M  V30 159 C 3.2283 0.3966 4.3261 0
M  V30 160 C 1.9473 0.3193 3.7660 0
M  V30 161 C 0.8829 -0.1070 4.5274 0
M  V30 162 C 1.0729 -0.4622 5.8679 0
M  V30 163 C 2.3540 -0.3860 6.4280 0
M  V30 164 C 3.4200 0.0371 5.6653 0
M  V30 165 H 1.8025 0.6006 2.7350 0
M  V30 166 H -0.1066 -0.1577 4.1025 0
M  V30 167 H 2.5000 -0.6592 7.4625 0
M  V30 168 H 4.4075 0.0974 6.0978 0
M  V30 169 C -0.0169 -0.8645 6.6630 0
M  V30 170 C -0.9603 -1.1825 7.3514 0
M  V30 171 C -2.0306 -1.4677 8.2179 0
M  V30 172 C -1.8340 -1.4307 9.5875 0
M  V30 173 C -2.8952 -1.6357 10.4744 0
M  V30 174 C -4.1687 -1.8612 10.0130 0
M  V30 175 C -4.4143 -1.9181 8.6295 0
M  V30 176 C -5.7023 -2.1303 8.0875 0
M  V30 177 C -5.8679 -2.1955 6.7347 0
M  V30 178 N -4.8234 -2.0929 5.8759 0
M  V30 179 C -3.6103 -1.8699 6.3417 0
M  V30 180 C -3.3363 -1.7471 7.7127 0
M  V30 181 H -0.8473 -1.2281 9.9748 0
M  V30 182 H -2.7045 -1.5998 11.5362 0
M  V30 183 H -4.9891 -1.9957 10.7003 0
M  V30 184 H -6.5450 -2.2364 8.7518 0
M  V30 185 H -6.8490 -2.3346 6.2844 0
M  V30 186 H -2.8030 -1.7908 5.6168 0
M  V30 END ATOM
M  V30 BEGIN BOND
M  V30 1 3 3 4
M  V30 2 1 4 5
M  V30 3 2 5 6
M  V30 4 1 6 7
M  V30 5 2 7 8
M  V30 6 1 8 9
M  V30 7 2 9 10
M  V30 8 1 10 11
M  V30 9 2 11 12
M  V30 10 1 12 13
M  V30 11 2 13 14
M  V30 12 1 14 5
M  V30 13 1 14 9
M  V30 14 1 6 15
M  V30 15 1 7 16
M  V30 16 1 8 17
M  V30 17 1 10 18
M  V30 18 1 12 19
M  V30 19 1 13 20
M  V30 20 2 21 22
M  V30 21 1 22 23
M  V30 22 2 23 24
M  V30 23 1 24 25
M  V30 24 2 25 26
M  V30 25 1 26 21
M  V30 26 1 22 27
M  V30 27 1 23 28
M  V30 28 1 25 29
M  V30 29 1 26 30
M  V30 30 3 31 32
M  V30 31 1 32 33
M  V30 32 2 33 34
M  V30 33 1 34 35
M  V30 34 2 35 36
M  V30 35 1 36 37
M  V30 36 2 37 38
M  V30 37 1 38 39
M  V30 38 2 39 40
M  V30 39 1 40 41
M  V30 40 2 41 42
M  V30 41 1 42 33
M  V30 42 1 42 37
M  V30 43 1 34 43
M  V30 44 1 35 44
M  V30 45 1 36 45
M  V30 46 1 38 46
M  V30 47 1 39 47
M  V30 48 1 41 48
M  V30 49 1 3 21
M  V30 50 1 24 31
M  V30 51 3 49 50
M  V30 52 1 50 51
M  V30 53 2 51 52
M  V30 54 1 52 53
M  V30 55 2 53 54
M  V30 56 1 54 55
M  V30 57 2 55 56
M  V30 58 1 56 57
M  V30 59 2 57 58
M  V30 60 1 58 59
M  V30 61 2 59 60
M  V30 62 1 60 51
M  V30 63 1 60 55
M  V30 64 1 52 61
M  V30 65 1 53 62
M  V30 66 1 54 63
M  V30 67 1 56 64
M  V30 68 1 58 65
M  V30 69 1 59 66
M  V30 70 2 67 68
M  V30 71 1 68 69
M  V30 72 2 69 70
M  V30 73 1 70 71
M  V30 74 2 71 72
M  V30 75 1 72 67
M  V30 76 1 68 73
M  V30 77 1 69 74
M  V30 78 1 71 75
M  V30 79 1 72 76
M  V30 80 3 77 78
M  V30 81 1 78 79
M  V30 82 2 79 80
M  V30 83 1 80 81
M  V30 84 2 81 82
M  V30 85 1 82 83
M  V30 86 2 83 84
M  V30 87 1 84 85
M  V30 88 2 85 86
M  V30 89 1 86 87
M  V30 90 2 87 88
M  V30 91 1 88 79
M  V30 92 1 88 83
M  V30 93 1 80 89
M  V30 94 1 81 90
M  V30 95 1 82 91
M  V30 96 1 84 92
M  V30 97 1 85 93
M  V30 98 1 87 94
M  V30 99 1 49 67
M  V30 100 1 70 77
M  V30 101 3 95 96
M  V30 102 1 96 97
M  V30 103 2 97 98
M  V30 104 1 98 99
M  V30 105 2 99 100
M  V30 106 1 100 101
M  V30 107 2 101 102
M  V30 108 1 102 103
M  V30 109 2 103 104
M  V30 110 1 104 105
M  V30 111 2 105 106
M  V30 112 1 106 97
M  V30 113 1 106 101
M  V30 114 1 98 107
M  V30 115 1 99 108
M  V30 116 1 100 109
M  V30 117 1 102 110
M  V30 118 1 104 111
M  V30 119 1 105 112
M  V30 120 2 113 114
M  V30 121 1 114 115
M  V30 122 2 115 116
M  V30 123 1 116 117
M  V30 124 2 117 118
M  V30 125 1 118 113
M  V30 126 1 114 119
M  V30 127 1 115 120
M  V30 128 1 117 121
M  V30 129 1 118 122
M  V30 130 3 123 124
M  V30 131 1 124 125
M  V30 132 2 125 126
M  V30 133 1 126 127
M  V30 134 2 127 128
M  V30 135 1 128 129
M  V30 136 2 129 130
M  V30 137 1 130 131
M  V30 138 2 131 132
M  V30 139 1 132 133
M  V30 140 2 133 134
M  V30 141 1 134 125
M  V30 142 1 134 129
M  V30 143 1 126 135
M  V30 144 1 127 136
M  V30 145 1 128 137
M  V30 146 1 130 138
M  V30 147 1 131 139
M  V30 148 1 133 140
M  V30 149 1 95 113
M  V30 150 1 116 123
M  V30 151 3 141 142
M  V30 152 1 142 143
M  V30 153 2 143 144
M  V30 154 1 144 145
M  V30 155 2 145 146
M  V30 156 1 146 147
M  V30 157 2 147 148
M  V30 158 1 148 149
M  V30 159 2 149 150
M  V30 160 1 150 151
M  V30 161 2 151 152
M  V30 162 1 152 143
M  V30 163 1 152 147
M  V30 164 1 144 153
M  V30 165 1 145 154
M  V30 166 1 146 155
M  V30 167 1 148 156
M  V30 168 1 150 157
M  V30 169 1 151 158
M  V30 170 2 159 160
M  V30 171 1 160 161
M  V30 172 2 161 162
M  V30 173 1 162 163
M  V30 174 2 163 164
M  V30 175 1 164 159
M  V30 176 1 160 165
M  V30 177 1 161 166
M  V30 178 1 163 167
M  V30 179 1 164 168
M  V30 180 3 169 170
M  V30 181 1 170 171
M  V30 182 2 171 172
M  V30 183 1 172 173
M  V30 184 2 173 174
M  V30 185 1 174 175
M  V30 186 2 175 176
M  V30 187 1 176 177
M  V30 188 2 177 178
M  V30 189 1 178 179
M  V30 190 2 179 180
M  V30 191 1 180 171
M  V30 192 1 180 175
M  V30 193 1 172 181
M  V30 194 1 173 182
M  V30 195 1 174 183
M  V30 196 1 176 184
M  V30 197 1 177 185
M  V30 198 1 179 186
M  V30 199 1 141 159
M  V30 200 1 162 169
M  V30 201 9 40 1
M  V30 202 9 86 1
M  V30 203 9 103 1
M  V30 204 9 149 1
M  V30 205 9 11 2
M  V30 206 9 57 2
M  V30 207 9 132 2
M  V30 208 9 178 2
M  V30 END BOND
M  V30 END CTAB
M  END

$$$$
