
     RDKit          3D

  0  0  0  0  0  0  0  0  0  0999 V3000
M  V30 BEGIN CTAB
M  V30 COUNTS 186 208 0 0 0
M  V30 BEGIN ATOM
M  V30 1 Pd -4.5466 3.4127 3.9844 0 CHG=2
M  V30 2 Pd 4.5429 -3.4622 -3.9462 0 CHG=2
M  V30 3 C 4.4167 3.4646 -0.5615 0
M  V30 4 C 5.2272 2.8559 -1.2220 0
M  V30 5 C 6.1646 2.0951 -1.9452 0
M  V30 6 C 7.4923 2.4795 -2.0222 0
M  V30 7 C 8.4339 1.6899 -2.6919 0
M  V30 8 C 8.0743 0.5003 -3.2721 0
M  V30 9 C 6.7299 0.0746 -3.2200 0
M  V30 10 C 6.3046 -1.1574 -3.7529 0
M  V30 11 N 5.0511 -1.5561 -3.7057 0
M  V30 12 C 4.1015 -0.7509 -3.1657 0
M  V30 13 C 4.4133 0.4502 -2.5964 0
M  V30 14 C 5.7532 0.8874 -2.5770 0
M  V30 15 H 7.8055 3.3998 -1.5529 0
M  V30 16 H 9.4591 2.0241 -2.7355 0
M  V30 17 H 8.8076 -0.1149 -3.7685 0
M  V30 18 H 7.0209 -1.8288 -4.2200 0
M  V30 19 H 3.0819 -1.1280 -3.2167 0
M  V30 20 H 3.6525 1.0726 -2.1539 0
M  V30 21 C 3.4640 4.1531 0.2133 0
M  V30 22 C 3.8051 5.3461 0.8609 0
M  V30 23 C 2.8702 6.0133 1.6212 0
M  V30 24 C 1.5739 5.5005 1.7537 0
M  V30 25 C 1.2350 4.3049 1.1098 0
M  V30 26 C 2.1680 3.6400 0.3469 0
M  V30 27 H 4.8042 5.7426 0.7574 0
M  V30 28 H 3.1312 6.9361 2.1174 0
M  V30 29 H 0.2333 3.9184 1.2064 0
M  V30 30 H 1.9075 2.7224 -0.1563 0
M  V30 31 C 0.6150 6.2049 2.5057 0
M  V30 32 C -0.2197 6.8225 3.1279 0
M  V30 33 C -1.1707 7.6253 3.7829 0
M  V30 34 C -0.8775 8.9492 4.0607 0
M  V30 35 C -1.8291 9.7920 4.6426 0
M  V30 36 C -3.0901 9.3365 4.9388 0
M  V30 37 C -3.4301 7.9958 4.6842 0
M  V30 38 C -4.7134 7.4663 4.9497 0
M  V30 39 C -4.9707 6.1502 4.6984 0
M  V30 40 N -4.0192 5.3086 4.2238 0
M  V30 41 C -2.8171 5.7701 3.9404 0
M  V30 42 C -2.4595 7.1147 4.1246 0
M  V30 43 H 0.0981 9.3382 3.8120 0
M  V30 44 H -1.5652 10.8188 4.8452 0
M  V30 45 H -3.8293 9.9958 5.3661 0
M  V30 46 H -5.4799 8.1118 5.3477 0
M  V30 47 H -5.9544 5.7166 4.8698 0
M  V30 48 H -2.0863 5.0605 3.5585 0
M  V30 49 C 4.1494 -1.6382 3.5402 0
M  V30 50 C 4.9672 -2.1905 2.8403 0
M  V30 51 C 5.9172 -2.7794 1.9842 0
M  V30 52 C 7.2161 -3.0077 2.4037 0
M  V30 53 C 8.1738 -3.5354 1.5299 0
M  V30 54 C 7.8589 -3.8233 0.2267 0
M  V30 55 C 6.5428 -3.6140 -0.2379 0
M  V30 56 C 6.1651 -3.8495 -1.5736 0
M  V30 57 N 4.9367 -3.6606 -2.0079 0
M  V30 58 C 3.9656 -3.2630 -1.1477 0
M  V30 59 C 4.2335 -2.9780 0.1606 0
M  V30 60 C 5.5484 -3.1137 0.6502 0
M  V30 61 H 7.4954 -2.7660 3.4180 0
M  V30 62 H 9.1761 -3.7021 1.8932 0
M  V30 63 H 8.6057 -4.2097 -0.4484 0
M  V30 64 H 6.8995 -4.1946 -2.2975 0
M  V30 65 H 2.9650 -3.1908 -1.5680 0
M  V30 66 H 3.4550 -2.6475 0.8293 0
M  V30 67 C 3.1778 -0.9950 4.3311 0
M  V30 68 C 3.2672 -1.0179 5.7274 0
M  V30 69 C 2.2993 -0.4052 6.4924 0
M  V30 70 C 1.2238 0.2489 5.8783 0
M  V30 71 C 1.1473 0.2893 4.4814 0
M  V30 72 C 2.1107 -0.3285 3.7167 0
M  V30 73 H 4.0935 -1.5263 6.2015 0
M  V30 74 H 2.3619 -0.4308 7.5701 0
M  V30 75 H 0.3257 0.8048 4.0109 0
M  V30 76 H 2.0540 -0.3031 2.6400 0
M  V30 77 C 0.2166 0.8266 6.6739 0
M  V30 78 C -0.6661 1.2825 7.3656 0
M  V30 79 C -1.6808 1.7232 8.2337 0
M  V30 80 C -1.5320 1.5586 9.6002 0
M  V30 81 C -2.5494 1.9239 10.4866 0
M  V30 82 C -3.7359 2.4399 10.0268 0
M  V30 83 C -3.9304 2.6312 8.6472 0
M  V30 84 C -5.1332 3.1398 8.1064 0
M  V30 85 C -5.2515 3.3151 6.7586 0
M  V30 86 N -4.2337 3.0417 5.9054 0
M  V30 87 C -3.1033 2.5462 6.3689 0
M  V30 88 C -2.8895 2.2951 7.7330 0
M  V30 89 H -0.6178 1.1328 9.9848 0
M  V30 90 H -2.3971 1.7825 11.5456 0
M  V30 91 H -4.5270 2.7011 10.7120 0
M  V30 92 H -5.9497 3.3818 8.7677 0
M  V30 93 H -6.1711 3.6832 6.3075 0
M  V30 94 H -2.3156 2.3387 5.6476 0
M  V30 95 C -4.5496 -3.4043 0.3707 0
M  V30 96 C -5.3619 -2.7830 1.0172 0
M  V30 97 C -6.2970 -2.0070 1.7281 0
M  V30 98 C -7.6402 -2.3394 1.7438 0
M  V30 99 C -8.5756 -1.5305 2.3997 0
M  V30 100 C -8.1919 -0.3743 3.0292 0
M  V30 101 C -6.8298 -0.0047 3.0445 0
M  V30 102 C -6.3759 1.1892 3.6368 0
M  V30 103 N -5.1054 1.5331 3.6576 0
M  V30 104 C -4.1686 0.7044 3.1315 0
M  V30 105 C -4.5065 -0.4618 2.5068 0
M  V30 106 C -5.8620 -0.8377 2.4144 0
M  V30 107 H -7.9713 -3.2316 1.2344 0
M  V30 108 H -9.6143 -1.8229 2.3928 0
M  V30 109 H -8.9191 0.2566 3.5148 0
M  V30 110 H -7.0833 1.8759 4.0958 0
M  V30 111 H -3.1366 1.0290 3.2440 0
M  V30 112 H -3.7527 -1.1031 2.0792 0
M  V30 113 C -3.5829 -4.1066 -0.3747 0
M  V30 114 C -2.4119 -3.4564 -0.7826 0
M  V30 115 C -1.4536 -4.1390 -1.4971 0
M  V30 116 C -1.6399 -5.4895 -1.8139 0
M  V30 117 C -2.8182 -6.1353 -1.4186 0
M  V30 118 C -3.7803 -5.4509 -0.7093 0
M  V30 119 H -2.2712 -2.4167 -0.5331 0
M  V30 120 H -0.5521 -3.6403 -1.8141 0
M  V30 121 H -2.9650 -7.1754 -1.6689 0
M  V30 122 H -4.6864 -5.9508 -0.4005 0
M  V30 123 C -0.6445 -6.2158 -2.4941 0
M  V30 124 C 0.2232 -6.8595 -3.0402 0
M  V30 125 C 1.2068 -7.6903 -3.6059 0
M  V30 126 C 0.9380 -9.0340 -3.8022 0
M  V30 127 C 1.9157 -9.9008 -4.2994 0
M  V30 128 C 3.1793 -9.4487 -4.5902 0
M  V30 129 C 3.4969 -8.0903 -4.4129 0
M  V30 130 C 4.7820 -7.5636 -4.6751 0
M  V30 131 C 5.0200 -6.2321 -4.4962 0
M  V30 132 N 4.0487 -5.3750 -4.0960 0
M  V30 133 C 2.8425 -5.8311 -3.8216 0
M  V30 134 C 2.5009 -7.1873 -3.9388 0
M  V30 135 H -0.0406 -9.4184 -3.5585 0
M  V30 136 H 1.6694 -10.9420 -4.4410 0
M  V30 137 H 3.9373 -10.1244 -4.9537 0
M  V30 138 H 5.5655 -8.2234 -5.0122 0
M  V30 139 H 6.0036 -5.7982 -4.6672 0
M  V30 140 H 2.0957 -5.1080 -3.5005 0
M  V30 141 C -3.9954 1.8265 -3.5403 0
M  V30 142 C -4.8095 2.3956 -2.8495 0
M  V30 143 C -5.7595 2.9999 -2.0052 0
M  V30 144 C -7.0328 3.2993 -2.4585 0
M  V30 145 C -7.9939 3.8453 -1.6001 0
M  V30 146 C -7.7104 4.0788 -0.2788 0
M  V30 147 C -6.4226 3.7918 0.2219 0
M  V30 148 C -6.0819 3.9627 1.5773 0
M  V30 149 N -4.8812 3.6962 2.0461 0
M  V30 150 C -3.9006 3.2785 1.2061 0
M  V30 151 C -4.1347 3.0536 -0.1200 0
M  V30 152 C -5.4225 3.2739 -0.6494 0
M  V30 153 H -7.2884 3.1023 -3.4886 0
M  V30 154 H -8.9746 4.0702 -1.9902 0
M  V30 155 H -8.4610 4.4797 0.3836 0
M  V30 156 H -6.8232 4.3197 2.2879 0
M  V30 157 H -2.9224 3.1350 1.6610 0
M  V30 158 H -3.3521 2.7039 -0.7738 0
M  V30 159 C -3.0417 1.1521 -4.3261 0
M  V30 160 C -1.8158 0.7727 -3.7660 0
M  V30 161 C -0.8831 0.1058 -4.5274 0
M  V30 162 C -1.1520 -0.1942 -5.8679 0
M  V30 163 C -2.3783 0.1842 -6.4280 0
M  V30 164 C -3.3133 0.8483 -5.6653 0
M  V30 165 H -1.6083 1.0115 -2.7350 0
M  V30 166 H 0.0661 -0.1785 -4.1025 0
M  V30 167 H -2.5851 -0.0466 -7.4625 0
M  V30 168 H -4.2582 1.1415 -6.0978 0
M  V30 169 C -0.1889 -0.8437 -6.6630 0
M  V30 170 C 0.6519 -1.3768 -7.3514 0
M  V30 171 C 1.6239 -1.9080 -8.2179 0
M  V30 172 C 1.4417 -1.8254 -9.5875 0
M  V30 173 C 2.4238 -2.2766 -10.4744 0
M  V30 174 C 3.6073 -2.7981 -10.0130 0
M  V30 175 C 3.8324 -2.9116 -8.6295 0
M  V30 176 C 5.0331 -3.4237 -8.0875 0
M  V30 177 C 5.1786 -3.5264 -6.7347 0
M  V30 178 N 4.1883 -3.1786 -5.8759 0
M  V30 179 C 3.0628 -2.6739 -6.3417 0
M  V30 180 C 2.8259 -2.4895 -7.7127 0
M  V30 181 H 0.5313 -1.3942 -9.9748 0
M  V30 182 H 2.2471 -2.1964 -11.5362 0
M  V30 183 H 4.3723 -3.1236 -10.7003 0
M  V30 184 H 5.8265 -3.7269 -8.7518 0
M  V30 185 H 6.0986 -3.8945 -6.2844 0
M  V30 186 H 2.2975 -2.4054 -5.6168 0
M  V30 END ATOM
M  V30 BEGIN BOND
M  V30 1 3 3 4
M  V30 2 1 4 5
M  V30 3 2 5 6
M  V30 4 1 6 7
M  V30 5 2 7 8
M  V30 6 1 8 9
M  V30 7 2 9 10
M  V30 8 1 10 11
M  V30 9 2 11 12
M  V30 10 1 12 13
M  V30 11 2 13 14
M  V30 12 1 14 5
M  V30 13 1 14 9
M  V30 14 1 6 15
M  V30 15 1 7 16
M  V30 16 1 8 17
M  V30 17 1 10 18
M  V30 18 1 12 19
M  V30 19 1 13 20
M  V30 20 2 21 22
M  V30 21 1 22 23
M  V30 22 2 23 24
M  V30 23 1 24 25
M  V30 24 2 25 26
M  V30 25 1 26 21
M  V30 26 1 22 27
M  V30 27 1 23 28
M  V30 28 1 25 29
M  V30 29 1 26 30
M  V30 30 3 31 32
M  V30 31 1 32 33
M  V30 32 2 33 34
M  V30 33 1 34 35
M  V30 34 2 35 36
M  V30 35 1 36 37
M  V30 36 2 37 38
M  V30 37 1 38 39
M  V30 38 2 39 40
M  V30 39 1 40 41
M  V30 40 2 41 42
M  V30 41 1 42 33
M  V30 42 1 42 37
M  V30 43 1 34 43
M  V30 44 1 35 44
M  V30 45 1 36 45
M  V30 46 1 38 46
M  V30 47 1 39 47
M  V30 48 1 41 48
M  V30 49 1 3 21
M  V30 50 1 24 31
M  V30 51 3 49 50
M  V30 52 1 50 51
M  V30 53 2 51 52
M  V30 54 1 52 53
M  V30 55 2 53 54
M  V30 56 1 54 55
M  V30 57 2 55 56
M  V30 58 1 56 57
M  V30 59 2 57 58
M  V30 60 1 58 59
M  V30 61 2 59 60
M  V30 62 1 60 51
M  V30 63 1 60 55
M  V30 64 1 52 61
M  V30 65 1 53 62
M  V30 66 1 54 63
M  V30 67 1 56 64
M  V30 68 1 58 65
M  V30 69 1 59 66
M  V30 70 2 67 68
M  V30 71 1 68 69
M  V30 72 2 69 70
M  V30 73 1 70 71
M  V30 74 2 71 72
M  V30 75 1 72 67
M  V30 76 1 68 73
M  V30 77 1 69 74
M  V30 78 1 71 75
M  V30 79 1 72 76
M  V30 80 3 77 78
M  V30 81 1 78 79
M  V30 82 2 79 80
M  V30 83 1 80 81
M  V30 84 2 81 82
M  V30 85 1 82 83
M  V30 86 2 83 84
M  V30 87 1 84 85
M  V30 88 2 85 86
M  V30 89 1 86 87
M  V30 90 2 87 88
M  V30 91 1 88 79
M  V30 92 1 88 83
M  V30 93 1 80 89
M  V30 94 1 81 90
M  V30 95 1 82 91
M  V30 96 1 84 92
M  V30 97 1 85 93
M  V30 98 1 87 94
M  V30 99 1 49 67
M  V30 100 1 70 77
M  V30 101 3 95 96
M  V30 102 1 96 97
M  V30 103 2 97 98
M  V30 104 1 98 99
M  V30 105 2 99 100
M  V30 106 1 100 101
M  V30 107 2 101 102
M  V30 108 1 102 103
M  V30 109 2 103 104
M  V30 110 1 104 105
M  V30 111 2 105 106
M  V30 112 1 106 97
M  V30 113 1 106 101
M  V30 114 1 98 107
M  V30 115 1 99 108
M  V30 116 1 100 109
M  V30 117 1 102 110
M  V30 118 1 104 111
M  V30 119 1 105 112
M  V30 120 2 113 114
M  V30 121 1 114 115
M  V30 122 2 115 116
M  V30 123 1 116 117
M  V30 124 2 117 118
M  V30 125 1 118 113
M  V30 126 1 114 119
M  V30 127 1 115 120
M  V30 128 1 117 121
M  V30 129 1 118 122
M  V30 130 3 123 124
M  V30 131 1 124 125
M  V30 132 2 125 126
M  V30 133 1 126 127
M  V30 134 2 127 128
M  V30 135 1 128 129
M  V30 136 2 129 130
M  V30 137 1 130 131
M  V30 138 2 131 132
M  V30 139 1 132 133
M  V30 140 2 133 134
M  V30 141 1 134 125
M  V30 142 1 134 129
M  V30 143 1 126 135
M  V30 144 1 127 136
M  V30 145 1 128 137
M  V30 146 1 130 138
M  V30 147 1 131 139
M  V30 148 1 133 140
M  V30 149 1 95 113
M  V30 150 1 116 123
M  V30 151 3 141 142
M  V30 152 1 142 143
M  V30 153 2 143 144
M  V30 154 1 144 145
M  V30 155 2 145 146
M  V30 156 1 146 147
M  V30 157 2 147 148
M  V30 158 1 148 149
M  V30 159 2 149 150
M  V30 160 1 150 151
M  V30 161 2 151 152
M  V30 162 1 152 143
M  V30 163 1 152 147
M  V30 164 1 144 153
M  V30 165 1 145 154
M  V30 166 1 146 155
M  V30 167 1 148 156
M  V30 168 1 150 157
M  V30 169 1 151 158
M  V30 170 2 159 160
M  V30 171 1 160 161
M  V30 172 2 161 162
M  V30 173 1 162 163
M  V30 174 2 163 164
M  V30 175 1 164 159
M  V30 176 1 160 165
M  V30 177 1 161 166
M  V30 178 1 163 167
M  V30 179 1 164 168
M  V30 180 3 169 170
M  V30 181 1 170 171
M  V30 182 2 171 172
M  V30 183 1 172 173
M  V30 184 2 173 174
M  V30 185 1 174 175
M  V30 186 2 175 176
M  V30 187 1 176 177
M  V30 188 2 177 178
M  V30 189 1 178 179
M  V30 190 2 179 180
M  V30 191 1 180 171
M  V30 192 1 180 175
M  V30 193 1 172 181
M  V30 194 1 173 182
M  V30 195 1 174 183
M  V30 196 1 176 184
M  V30 197 1 177 185
M  V30 198 1 179 186
M  V30 199 1 141 159
M  V30 200 1 162 169
M  V30 201 9 40 1
M  V30 202 9 86 1
M  V30 203 9 103 1
M  V30 204 9 149 1
M  V30 205 9 11 2
M  V30 206 9 57 2
M  V30 207 9 132 2
M  V30 208 9 178 2
M  V30 END BOND
M  V30 END CTAB
M  END

$$$$
