
     RDKit          3D

  0  0  0  0  0  0  0  0  0  0999 V3000
M  V30 BEGIN CTAB
M  V30 COUNTS 186 208 0 0 0
M  V30 BEGIN ATOM
M  V30 1 Pd 0.8157 5.3755 4.1444 0 CHG=2
M  V30 2 Pd -0.3984 -5.4703 -4.4389 0 CHG=2
M  V30 3 C 5.4610 -1.1088 -1.9699 0
M  V30 4 C 5.3661 -2.0761 -2.6904 0
M  V30 5 C 5.2222 -3.2342 -3.4768 0
M  V30 6 C 6.3217 -3.9891 -3.8478 0
M  V30 7 C 6.1703 -5.1725 -4.5794 0
M  V30 8 C 4.9268 -5.6319 -4.9310 0
M  V30 9 C 3.7804 -4.8894 -4.5762 0
M  V30 10 C 2.4742 -5.3296 -4.8641 0
M  V30 11 N 1.4037 -4.6384 -4.5344 0
M  V30 12 C 1.5341 -3.4305 -3.9296 0
M  V30 13 C 2.7541 -2.9266 -3.5811 0
M  V30 14 C 3.9217 -3.6628 -3.8669 0
M  V30 15 H 7.3099 -3.6615 -3.5624 0
M  V30 16 H 7.0508 -5.7322 -4.8549 0
M  V30 17 H 4.8141 -6.5553 -5.4762 0
M  V30 18 H 2.3149 -6.2782 -5.3707 0
M  V30 19 H 0.6044 -2.8967 -3.7420 0
M  V30 20 H 2.8436 -1.9741 -3.0841 0
M  V30 21 C 5.5520 0.0108 -1.1213 0
M  V30 22 C 6.8011 0.4822 -0.7010 0
M  V30 23 C 6.8840 1.5755 0.1328 0
M  V30 24 C 5.7194 2.2200 0.5677 0
M  V30 25 C 4.4705 1.7449 0.1508 0
M  V30 26 C 4.3876 0.6547 -0.6853 0
M  V30 27 H 7.6994 -0.0135 -1.0377 0
M  V30 28 H 7.8474 1.9426 0.4538 0
M  V30 29 H 3.5766 2.2496 0.4801 0
M  V30 30 H 3.4270 0.2911 -1.0140 0
M  V30 31 C 5.8136 3.3561 1.3933 0
M  V30 32 C 5.8920 4.3500 2.0797 0
M  V30 33 C 6.0443 5.5499 2.7972 0
M  V30 34 C 7.2826 6.1661 2.8500 0
M  V30 35 C 7.4489 7.3972 3.4914 0
M  V30 36 C 6.3845 8.0414 4.0721 0
M  V30 37 C 5.1095 7.4483 4.0528 0
M  V30 38 C 3.9689 8.0636 4.6170 0
M  V30 39 C 2.7644 7.4234 4.5824 0
M  V30 40 N 2.6219 6.1864 4.0454 0
M  V30 41 C 3.6569 5.5900 3.4874 0
M  V30 42 C 4.9309 6.1767 3.4343 0
M  V30 43 H 8.1295 5.6927 2.3771 0
M  V30 44 H 8.4293 7.8482 3.5129 0
M  V30 45 H 6.5119 9.0021 4.5457 0
M  V30 46 H 4.0625 9.0381 5.0688 0
M  V30 47 H 1.8624 7.8792 4.9869 0
M  V30 48 H 3.4962 4.6001 3.0659 0
M  V30 49 C 2.3361 -4.4708 2.7061 0
M  V30 50 C 2.2796 -5.4046 1.9390 0
M  V30 51 C 2.2444 -6.4525 0.9994 0
M  V30 52 C 2.9717 -7.6139 1.1933 0
M  V30 53 C 2.9835 -8.6270 0.2274 0
M  V30 54 C 2.2909 -8.4906 -0.9482 0
M  V30 55 C 1.5291 -7.3255 -1.1805 0
M  V30 56 C 0.8298 -7.1053 -2.3825 0
M  V30 57 N 0.1136 -6.0221 -2.5991 0
M  V30 58 C -0.0073 -5.0823 -1.6280 0
M  V30 59 C 0.6549 -5.1851 -0.4383 0
M  V30 60 C 1.4768 -6.3033 -0.1904 0
M  V30 61 H 3.5452 -7.7347 2.0997 0
M  V30 62 H 3.5603 -9.5196 0.4144 0
M  V30 63 H 2.3204 -9.2646 -1.6983 0
M  V30 64 H 0.8722 -7.8403 -3.1829 0
M  V30 65 H -0.6664 -4.2484 -1.8593 0
M  V30 66 H 0.5622 -4.4227 0.3184 0
M  V30 67 C 2.3848 -3.3672 3.5795 0
M  V30 68 C 2.7229 -3.5394 4.9265 0
M  V30 69 C 2.7454 -2.4567 5.7777 0
M  V30 70 C 2.4358 -1.1770 5.2999 0
M  V30 71 C 2.1186 -1.0031 3.9479 0
M  V30 72 C 2.0896 -2.0858 3.0984 0
M  V30 73 H 2.9569 -4.5266 5.2964 0
M  V30 74 H 2.9965 -2.5898 6.8194 0
M  V30 75 H 1.8938 -0.0153 3.5796 0
M  V30 76 H 1.8423 -1.9573 2.0566 0
M  V30 77 C 2.4140 -0.0889 6.1926 0
M  V30 78 C 2.3558 0.8324 6.9757 0
M  V30 79 C 2.2418 1.8327 7.9574 0
M  V30 80 C 2.5041 1.5256 9.2816 0
M  V30 81 C 2.3355 2.4781 10.2908 0
M  V30 82 C 1.8860 3.7428 10.0012 0
M  V30 83 C 1.6126 4.1028 8.6696 0
M  V30 84 C 1.1301 5.3802 8.3050 0
M  V30 85 C 0.8990 5.6699 6.9920 0
M  V30 86 N 1.1439 4.7746 6.0037 0
M  V30 87 C 1.5747 3.5655 6.3048 0
M  V30 88 C 1.8118 3.1531 7.6252 0
M  V30 89 H 2.8356 0.5309 9.5377 0
M  V30 90 H 2.5514 2.2029 11.3119 0
M  V30 91 H 1.7370 4.4689 10.7849 0
M  V30 92 H 0.9456 6.1148 9.0725 0
M  V30 93 H 0.5063 6.6357 6.6792 0
M  V30 94 H 1.7542 2.8790 5.4800 0
M  V30 95 C -5.0908 1.1978 1.4629 0
M  V30 96 C -4.9905 2.1755 2.1684 0
M  V30 97 C -4.8363 3.3425 2.9407 0
M  V30 98 C -5.9196 4.1469 3.2483 0
M  V30 99 C -5.7528 5.3388 3.9630 0
M  V30 100 C -4.5087 5.7552 4.3622 0
M  V30 101 C -3.3791 4.9587 4.0767 0
M  V30 102 C -2.0710 5.3486 4.4219 0
M  V30 103 N -1.0165 4.6046 4.1620 0
M  V30 104 C -1.1696 3.3904 3.5760 0
M  V30 105 C -2.3915 2.9323 3.1741 0
M  V30 106 C -3.5383 3.7247 3.3840 0
M  V30 107 H -6.9064 3.8536 2.9237 0
M  V30 108 H -6.6211 5.9391 4.1867 0
M  V30 109 H -4.3828 6.6848 4.8939 0
M  V30 110 H -1.8964 6.3009 4.9170 0
M  V30 111 H -0.2585 2.8092 3.4525 0
M  V30 112 H -2.4963 1.9720 2.6953 0
M  V30 113 C -5.1771 0.0567 0.6421 0
M  V30 114 C -4.0462 -0.3859 -0.0547 0
M  V30 115 C -4.1164 -1.5099 -0.8463 0
M  V30 116 C -5.3165 -2.2220 -0.9539 0
M  V30 117 C -6.4513 -1.7703 -0.2685 0
M  V30 118 C -6.3833 -0.6417 0.5185 0
M  V30 119 H -3.1229 0.1640 0.0340 0
M  V30 120 H -3.2478 -1.8517 -1.3855 0
M  V30 121 H -7.3790 -2.3157 -0.3568 0
M  V30 122 H -7.2574 -0.2968 1.0507 0
M  V30 123 C -5.3890 -3.4046 -1.7136 0
M  V30 124 C -5.4502 -4.4454 -2.3289 0
M  V30 125 C -5.5841 -5.6939 -2.9620 0
M  V30 126 C -6.8046 -6.3468 -2.9375 0
M  V30 127 C -6.9546 -7.6185 -3.4982 0
M  V30 128 C -5.8899 -8.2673 -4.0738 0
M  V30 129 C -4.6321 -7.6409 -4.1278 0
M  V30 130 C -3.4917 -8.2594 -4.6887 0
M  V30 131 C -2.3034 -7.5900 -4.7229 0
M  V30 132 N -2.1775 -6.3232 -4.2568 0
M  V30 133 C -3.2130 -5.7196 -3.7073 0
M  V30 134 C -4.4712 -6.3303 -3.5906 0
M  V30 135 H -7.6509 -5.8677 -2.4694 0
M  V30 136 H -7.9218 -8.0962 -3.4618 0
M  V30 137 H -6.0043 -9.2571 -4.4867 0
M  V30 138 H -3.5726 -9.2600 -5.0826 0
M  V30 139 H -1.4010 -8.0454 -5.1271 0
M  V30 140 H -3.0650 -4.7049 -3.3438 0
M  V30 141 C -1.6499 4.4125 -3.0968 0
M  V30 142 C -1.5805 5.3550 -2.3413 0
M  V30 143 C -1.5362 6.4137 -1.4151 0
M  V30 144 C -2.2013 7.6037 -1.6554 0
M  V30 145 C -2.2048 8.6321 -0.7063 0
M  V30 146 C -1.5688 8.4832 0.4997 0
M  V30 147 C -0.8753 7.2871 0.7820 0
M  V30 148 C -0.2434 7.0520 2.0181 0
M  V30 149 N 0.4045 5.9373 2.2831 0
M  V30 150 C 0.5206 4.9759 1.3323 0
M  V30 151 C -0.0791 5.0933 0.1115 0
M  V30 152 C -0.8291 6.2480 -0.1906 0
M  V30 153 H -2.7299 7.7364 -2.5872 0
M  V30 154 H -2.7301 9.5477 -0.9305 0
M  V30 155 H -1.5924 9.2703 1.2363 0
M  V30 156 H -0.2840 7.8007 2.8054 0
M  V30 157 H 1.1196 4.1108 1.6102 0
M  V30 158 H 0.0049 4.3143 -0.6291 0
M  V30 159 C -1.7321 3.3019 -3.9580 0
M  V30 160 C -1.1338 2.0892 -3.5948 0
M  V30 161 C -1.2182 0.9979 -4.4293 0
M  V30 162 C -1.8991 1.0939 -5.6484 0
M  V30 163 C -2.4984 2.3062 -6.0114 0
M  V30 164 C -2.4173 3.3975 -5.1749 0
M  V30 165 H -0.6035 2.0201 -2.6583 0
M  V30 166 H -0.7497 0.0656 -4.1579 0
M  V30 167 H -3.0229 2.3804 -6.9524 0
M  V30 168 H -2.8781 4.3327 -5.4557 0
M  V30 169 C -1.9587 -0.0071 -6.5235 0
M  V30 170 C -1.9839 -0.9467 -7.2861 0
M  V30 171 C -1.9643 -1.9733 -8.2471 0
M  V30 172 C -2.3096 -1.6937 -9.5580 0
M  V30 173 C -2.2278 -2.6749 -10.5505 0
M  V30 174 C -1.7841 -3.9410 -10.2581 0
M  V30 175 C -1.4323 -4.2741 -8.9379 0
M  V30 176 C -0.9534 -5.5524 -8.5713 0
M  V30 177 C -0.6496 -5.8160 -7.2675 0
M  V30 178 N -0.8203 -4.8937 -6.2880 0
M  V30 179 C -1.2415 -3.6823 -6.5936 0
M  V30 180 C -1.5447 -3.2952 -7.9081 0
M  V30 181 H -2.6353 -0.6982 -9.8181 0
M  V30 182 H -2.5055 -2.4207 -11.5621 0
M  V30 183 H -1.7001 -4.6888 -11.0310 0
M  V30 184 H -0.8300 -6.3088 -9.3299 0
M  V30 185 H -0.2569 -6.7821 -6.9556 0
M  V30 186 H -1.3605 -2.9736 -5.7769 0
M  V30 END ATOM
M  V30 BEGIN BOND
M  V30 1 3 3 4
M  V30 2 1 4 5
M  V30 3 2 5 6
M  V30 4 1 6 7
M  V30 5 2 7 8
M  V30 6 1 8 9
M  V30 7 2 9 10
M  V30 8 1 10 11
M  V30 9 2 11 12
M  V30 10 1 12 13
M  V30 11 2 13 14
M  V30 12 1 14 5
M  V30 13 1 14 9
M  V30 14 1 6 15
M  V30 15 1 7 16
M  V30 16 1 8 17
M  V30 17 1 10 18
M  V30 18 1 12 19
M  V30 19 1 13 20
M  V30 20 2 21 22
M  V30 21 1 22 23
M  V30 22 2 23 24
M  V30 23 1 24 25
M  V30 24 2 25 26
M  V30 25 1 26 21
M  V30 26 1 22 27
M  V30 27 1 23 28
M  V30 28 1 25 29
M  V30 29 1 26 30
M  V30 30 3 31 32
M  V30 31 1 32 33
M  V30 32 2 33 34
M  V30 33 1 34 35
M  V30 34 2 35 36
M  V30 35 1 36 37
M  V30 36 2 37 38
M  V30 37 1 38 39
M  V30 38 2 39 40
M  V30 39 1 40 41
M  V30 40 2 41 42
M  V30 41 1 42 33
M  V30 42 1 42 37
M  V30 43 1 34 43
M  V30 44 1 35 44
M  V30 45 1 36 45
M  V30 46 1 38 46
M  V30 47 1 39 47
M  V30 48 1 41 48
M  V30 49 1 3 21
M  V30 50 1 24 31
M  V30 51 3 49 50
M  V30 52 1 50 51
M  V30 53 2 51 52
M  V30 54 1 52 53
M  V30 55 2 53 54
M  V30 56 1 54 55
M  V30 57 2 55 56
M  V30 58 1 56 57
M  V30 59 2 57 58
M  V30 60 1 58 59
M  V30 61 2 59 60
M  V30 62 1 60 51
M  V30 63 1 60 55
M  V30 64 1 52 61
M  V30 65 1 53 62
M  V30 66 1 54 63
M  V30 67 1 56 64
M  V30 68 1 58 65
M  V30 69 1 59 66
M  V30 70 2 67 68
M  V30 71 1 68 69
M  V30 72 2 69 70
M  V30 73 1 70 71
M  V30 74 2 71 72
M  V30 75 1 72 67
M  V30 76 1 68 73
M  V30 77 1 69 74
M  V30 78 1 71 75
M  V30 79 1 72 76
M  V30 80 3 77 78
M  V30 81 1 78 79
M  V30 82 2 79 80
M  V30 83 1 80 81
M  V30 84 2 81 82
M  V30 85 1 82 83
M  V30 86 2 83 84
M  V30 87 1 84 85
M  V30 88 2 85 86
M  V30 89 1 86 87
M  V30 90 2 87 88
M  V30 91 1 88 79
M  V30 92 1 88 83
M  V30 93 1 80 89
M  V30 94 1 81 90
M  V30 95 1 82 91
M  V30 96 1 84 92
M  V30 97 1 85 93
M  V30 98 1 87 94
M  V30 99 1 49 67
M  V30 100 1 70 77
M  V30 101 3 95 96
M  V30 102 1 96 97
M  V30 103 2 97 98
M  V30 104 1 98 99
M  V30 105 2 99 100
M  V30 106 1 100 101
M  V30 107 2 101 102
M  V30 108 1 102 103
M  V30 109 2 103 104
M  V30 110 1 104 105
M  V30 111 2 105 106
M  V30 112 1 106 97
M  V30 113 1 106 101
M  V30 114 1 98 107
M  V30 115 1 99 108
M  V30 116 1 100 109
M  V30 117 1 102 110
M  V30 118 1 104 111
M  V30 119 1 105 112
M  V30 120 2 113 114
M  V30 121 1 114 115
M  V30 122 2 115 116
M  V30 123 1 116 117
M  V30 124 2 117 118
M  V30 125 1 118 113
M  V30 126 1 114 119
M  V30 127 1 115 120
M  V30 128 1 117 121
M  V30 129 1 118 122
M  V30 130 3 123 124
M  V30 131 1 124 125
M  V30 132 2 125 126
M  V30 133 1 126 127
M  V30 134 2 127 128
M  V30 135 1 128 129
M  V30 136 2 129 130
M  V30 137 1 130 131
M  V30 138 2 131 132
M  V30 139 1 132 133
M  V30 140 2 133 134
M  V30 141 1 134 125
M  V30 142 1 134 129
M  V30 143 1 126 135
M  V30 144 1 127 136
M  V30 145 1 128 137
M  V30 146 1 130 138
M  V30 147 1 131 139
M  V30 148 1 133 140
M  V30 149 1 95 113
M  V30 150 1 116 123
M  V30 151 3 141 142
M  V30 152 1 142 143
M  V30 153 2 143 144
M  V30 154 1 144 145
M  V30 155 2 145 146
M  V30 156 1 146 147
M  V30 157 2 147 148
M  V30 158 1 148 149
M  V30 159 2 149 150
M  V30 160 1 150 151
M  V30 161 2 151 152
M  V30 162 1 152 143
M  V30 163 1 152 147
M  V30 164 1 144 153
M  V30 165 1 145 154
M  V30 166 1 146 155
M  V30 167 1 148 156
M  V30 168 1 150 157
M  V30 169 1 151 158
M  V30 170 2 159 160
M  V30 171 1 160 161
M  V30 172 2 161 162
M  V30 173 1 162 163
M  V30 174 2 163 164
M  V30 175 1 164 159
M  V30 176 1 160 165
M  V30 177 1 161 166
M  V30 178 1 163 167
M  V30 179 1 164 168
M  V30 180 3 169 170
M  V30 181 1 170 171
M  V30 182 2 171 172
M  V30 183 1 172 173
M  V30 184 2 173 174
M  V30 185 1 174 175
M  V30 186 2 175 176
M  V30 187 1 176 177
M  V30 188 2 177 178
M  V30 189 1 178 179
M  V30 190 2 179 180
M  V30 191 1 180 171
M  V30 192 1 180 175
M  V30 193 1 172 181
M  V30 194 1 173 182
M  V30 195 1 174 183
M  V30 196 1 176 184
M  V30 197 1 177 185
M  V30 198 1 179 186
M  V30 199 1 141 159
M  V30 200 1 162 169
M  V30 201 9 40 1
M  V30 202 9 86 1
M  V30 203 9 103 1
M  V30 204 9 149 1
M  V30 205 9 11 2
M  V30 206 9 57 2
M  V30 207 9 132 2
M  V30 208 9 178 2
M  V30 END BOND
M  V30 END CTAB
M  END

$$$$
