
     RDKit          3D

  0  0  0  0  0  0  0  0  0  0999 V3000
M  V30 BEGIN CTAB
M  V30 COUNTS 186 208 0 0 0
M  V30 BEGIN ATOM
M  V30 1 Pd 0.1983 6.3795 1.9441 0 CHG=2
M  V30 2 Pd -0.1364 -6.8952 -2.1116 0 CHG=2
M  V30 3 C 0.6957 -0.1231 -5.7030 0
M  V30 4 C 0.7036 -1.2798 -6.0575 0
M  V30 5 C 0.7622 -2.6377 -6.4225 0
M  V30 6 C 1.2277 -3.0252 -7.6673 0
M  V30 7 C 1.3410 -4.3785 -8.0057 0
M  V30 8 C 1.0162 -5.3615 -7.1062 0
M  V30 9 C 0.5335 -5.0087 -5.8279 0
M  V30 10 C 0.2284 -5.9672 -4.8426 0
M  V30 11 N -0.2223 -5.6402 -3.6500 0
M  V30 12 C -0.4517 -4.3382 -3.3434 0
M  V30 13 C -0.1622 -3.3299 -4.2172 0
M  V30 14 C 0.3747 -3.6359 -5.4841 0
M  V30 15 H 1.5127 -2.2707 -8.3847 0
M  V30 16 H 1.7032 -4.6426 -8.9873 0
M  V30 17 H 1.1254 -6.4027 -7.3641 0
M  V30 18 H 0.3694 -7.0259 -5.0459 0
M  V30 19 H -0.8781 -4.1559 -2.3589 0
M  V30 20 H -0.3314 -2.2981 -3.9550 0
M  V30 21 C 0.6928 1.2163 -5.2696 0
M  V30 22 C 1.0638 2.2451 -6.1432 0
M  V30 23 C 1.0633 3.5533 -5.7125 0
M  V30 24 C 0.6947 3.8621 -4.3972 0
M  V30 25 C 0.3285 2.8323 -3.5229 0
M  V30 26 C 0.3254 1.5252 -3.9542 0
M  V30 27 H 1.3464 2.0074 -7.1580 0
M  V30 28 H 1.3450 4.3480 -6.3871 0
M  V30 29 H 0.0362 3.0749 -2.5140 0
M  V30 30 H 0.0366 0.7305 -3.2848 0
M  V30 31 C 0.6654 5.2042 -3.9743 0
M  V30 32 C 0.6116 6.3592 -3.6158 0
M  V30 33 C 0.4780 7.7187 -3.2820 0
M  V30 34 C 0.4818 8.6752 -4.2825 0
M  V30 35 C 0.2759 10.0266 -3.9895 0
M  V30 36 C 0.0447 10.4435 -2.7018 0
M  V30 37 C 0.0423 9.5089 -1.6510 0
M  V30 38 C -0.2046 9.8674 -0.3063 0
M  V30 39 C -0.1714 8.9132 0.6684 0
M  V30 40 N 0.1235 7.6176 0.3976 0
M  V30 41 C 0.3355 7.2392 -0.8474 0
M  V30 42 C 0.2866 8.1324 -1.9289 0
M  V30 43 H 0.6343 8.3690 -5.3062 0
M  V30 44 H 0.2857 10.7446 -4.7953 0
M  V30 45 H -0.1372 11.4839 -2.4824 0
M  V30 46 H -0.4201 10.8957 -0.0640 0
M  V30 47 H -0.3797 9.1517 1.7099 0
M  V30 48 H 0.5651 6.1898 -1.0189 0
M  V30 49 C 5.4003 -1.5721 -1.3785 0
M  V30 50 C 5.3631 -2.7119 -1.7827 0
M  V30 51 C 5.2695 -4.0200 -2.2949 0
M  V30 52 C 6.3047 -4.5809 -3.0222 0
M  V30 53 C 6.1830 -5.8576 -3.5828 0
M  V30 54 C 5.0272 -6.5826 -3.4452 0
M  V30 55 C 3.9514 -6.0502 -2.7029 0
M  V30 56 C 2.7239 -6.7245 -2.5589 0
M  V30 57 N 1.7211 -6.2327 -1.8621 0
M  V30 58 C 1.8612 -5.0502 -1.2116 0
M  V30 59 C 2.9995 -4.3027 -1.3115 0
M  V30 60 C 4.0751 -4.7687 -2.0944 0
M  V30 61 H 7.2158 -4.0201 -3.1658 0
M  V30 62 H 7.0122 -6.2634 -4.1415 0
M  V30 63 H 4.9305 -7.5568 -3.8970 0
M  V30 64 H 2.5692 -7.6882 -3.0384 0
M  V30 65 H 1.0116 -4.7423 -0.6061 0
M  V30 66 H 3.0912 -3.3569 -0.8018 0
M  V30 67 C 5.4143 -0.2482 -0.8989 0
M  V30 68 C 6.6259 0.4068 -0.6516 0
M  V30 69 C 6.6285 1.6939 -0.1608 0
M  V30 70 C 5.4200 2.3566 0.0882 0
M  V30 71 C 4.2092 1.7078 -0.1798 0
M  V30 72 C 4.2061 0.4193 -0.6640 0
M  V30 73 H 7.5579 -0.1054 -0.8387 0
M  V30 74 H 7.5628 2.1968 0.0399 0
M  V30 75 H 3.2805 2.2247 -0.0000 0
M  V30 76 H 3.2755 -0.0859 -0.8687 0
M  V30 77 C 5.4390 3.6526 0.6370 0
M  V30 78 C 5.4650 4.7494 1.1488 0
M  V30 79 C 5.5789 5.9874 1.8059 0
M  V30 80 C 6.8335 6.4973 2.0929 0
M  V30 81 C 6.9823 7.6917 2.8040 0
M  V30 82 C 5.8874 8.3861 3.2562 0
M  V30 83 C 4.5925 7.9102 2.9832 0
M  V30 84 C 3.4245 8.5656 3.4347 0
M  V30 85 C 2.1970 8.0586 3.1222 0
M  V30 86 N 2.0506 6.9471 2.3596 0
M  V30 87 C 3.1159 6.2957 1.9367 0
M  V30 88 C 4.4238 6.7116 2.2302 0
M  V30 89 H 7.7102 5.9574 1.7690 0
M  V30 90 H 7.9762 8.0595 3.0078 0
M  V30 91 H 6.0060 9.2964 3.8226 0
M  V30 92 H 3.5164 9.4617 4.0272 0
M  V30 93 H 1.2784 8.5255 3.4728 0
M  V30 94 H 2.9507 5.4072 1.3308 0
M  V30 95 C -0.9170 -0.3699 5.5123 0
M  V30 96 C -0.9408 0.7896 5.8571 0
M  V30 97 C -1.0128 2.1511 6.2079 0
M  V30 98 C -1.5512 2.5519 7.4181 0
M  V30 99 C -1.6784 3.9091 7.7366 0
M  V30 100 C -1.2917 4.8820 6.8510 0
M  V30 101 C -0.7288 4.5149 5.6099 0
M  V30 102 C -0.3500 5.4630 4.6404 0
M  V30 103 N 0.1808 5.1232 3.4846 0
M  V30 104 C 0.4221 3.8175 3.2054 0
M  V30 105 C 0.0642 2.8183 4.0644 0
M  V30 106 C -0.5579 3.1383 5.2882 0
M  V30 107 H -1.8860 1.8055 8.1223 0
M  V30 108 H -2.1007 4.1838 8.6909 0
M  V30 109 H -1.4113 5.9261 7.0922 0
M  V30 110 H -0.4978 6.5243 4.8256 0
M  V30 111 H 0.9202 3.6230 2.2583 0
M  V30 112 H 0.2478 1.7837 3.8227 0
M  V30 113 C -0.8790 -1.7108 5.0836 0
M  V30 114 C -0.8379 -2.0024 3.7147 0
M  V30 115 C -0.7837 -3.3094 3.2863 0
M  V30 116 C -0.7614 -4.3552 4.2162 0
M  V30 117 C -0.8177 -4.0635 5.5850 0
M  V30 118 C -0.8786 -2.7560 6.0140 0
M  V30 119 H -0.8517 -1.1932 3.0021 0
M  V30 120 H -0.7541 -3.5368 2.2331 0
M  V30 121 H -0.8073 -4.8705 6.3023 0
M  V30 122 H -0.9169 -2.5315 7.0696 0
M  V30 123 C -0.6487 -5.6936 3.7955 0
M  V30 124 C -0.5086 -6.8440 3.4456 0
M  V30 125 C -0.2772 -8.1934 3.1245 0
M  V30 126 C -0.1960 -9.1340 4.1371 0
M  V30 127 C 0.0996 -10.4716 3.8580 0
M  V30 128 C 0.3375 -10.8894 2.5718 0
M  V30 129 C 0.2599 -9.9710 1.5097 0
M  V30 130 C 0.5112 -10.3307 0.1662 0
M  V30 131 C 0.4041 -9.3933 -0.8195 0
M  V30 132 N 0.0336 -8.1153 -0.5598 0
M  V30 133 C -0.1894 -7.7358 0.6830 0
M  V30 134 C -0.0738 -8.6106 1.7743 0
M  V30 135 H -0.3553 -8.8256 5.1590 0
M  V30 136 H 0.1531 -11.1771 4.6731 0
M  V30 137 H 0.5861 -11.9179 2.3625 0
M  V30 138 H 0.7895 -11.3462 -0.0664 0
M  V30 139 H 0.6127 -9.6313 -1.8611 0
M  V30 140 H -0.4810 -6.7001 0.8446 0
M  V30 141 C -5.3608 1.1337 0.9345 0
M  V30 142 C -5.3341 2.2791 1.3234 0
M  V30 143 C -5.2546 3.5923 1.8232 0
M  V30 144 C -6.3255 4.1750 2.4790 0
M  V30 145 C -6.2233 5.4586 3.0273 0
M  V30 146 C -5.0523 6.1685 2.9514 0
M  V30 147 C -3.9385 5.6120 2.2872 0
M  V30 148 C -2.6943 6.2674 2.2161 0
M  V30 149 N -1.6545 5.7503 1.5965 0
M  V30 150 C -1.7676 4.5592 0.9561 0
M  V30 151 C -2.9213 3.8299 0.9888 0
M  V30 152 C -4.0405 4.3237 1.6893 0
M  V30 153 H -7.2507 3.6271 2.5733 0
M  V30 154 H -7.0806 5.8825 3.5272 0
M  V30 155 H -4.9720 7.1485 3.3941 0
M  V30 156 H -2.5573 7.2361 2.6902 0
M  V30 157 H -0.8802 4.2283 0.4200 0
M  V30 158 H -2.9933 2.8761 0.4916 0
M  V30 159 C -5.3705 -0.2017 0.4891 0
M  V30 160 C -4.2111 -0.7651 -0.0577 0
M  V30 161 C -4.2126 -2.0728 -0.4872 0
M  V30 162 C -5.3741 -2.8471 -0.3840 0
M  V30 163 C -6.5333 -2.2842 0.1638 0
M  V30 164 C -6.5311 -0.9768 0.5970 0
M  V30 165 H -3.3198 -0.1641 -0.1428 0
M  V30 166 H -3.3249 -2.5067 -0.9185 0
M  V30 167 H -7.4295 -2.8816 0.2424 0
M  V30 168 H -7.4255 -0.5424 1.0179 0
M  V30 169 C -5.3939 -4.1738 -0.8542 0
M  V30 170 C -5.4158 -5.3046 -1.2853 0
M  V30 171 C -5.5236 -6.5869 -1.8527 0
M  V30 172 C -6.7740 -7.1416 -2.0635 0
M  V30 173 C -6.9162 -8.3814 -2.6938 0
M  V30 174 C -5.8199 -9.0776 -3.1399 0
M  V30 175 C -4.5288 -8.5582 -2.9382 0
M  V30 176 C -3.3597 -9.2145 -3.3858 0
M  V30 177 C -2.1353 -8.6654 -3.1386 0
M  V30 178 N -1.9917 -7.5105 -2.4424 0
M  V30 179 C -3.0591 -6.8560 -2.0296 0
M  V30 180 C -4.3653 -7.3125 -2.2649 0
M  V30 181 H -7.6526 -6.6011 -1.7464 0
M  V30 182 H -7.9071 -8.7833 -2.8412 0
M  V30 183 H -5.9349 -10.0229 -3.6466 0
M  V30 184 H -3.4482 -10.1453 -3.9228 0
M  V30 185 H -1.2171 -9.1330 -3.4895 0
M  V30 186 H -2.8971 -5.9323 -1.4783 0
M  V30 END ATOM
M  V30 BEGIN BOND
M  V30 1 3 3 4
M  V30 2 1 4 5
M  V30 3 2 5 6
M  V30 4 1 6 7
M  V30 5 2 7 8
M  V30 6 1 8 9
M  V30 7 2 9 10
M  V30 8 1 10 11
M  V30 9 2 11 12
M  V30 10 1 12 13
M  V30 11 2 13 14
M  V30 12 1 14 5
M  V30 13 1 14 9
M  V30 14 1 6 15
M  V30 15 1 7 16
M  V30 16 1 8 17
M  V30 17 1 10 18
M  V30 18 1 12 19
M  V30 19 1 13 20
M  V30 20 2 21 22
M  V30 21 1 22 23
M  V30 22 2 23 24
M  V30 23 1 24 25
M  V30 24 2 25 26
M  V30 25 1 26 21
M  V30 26 1 22 27
M  V30 27 1 23 28
M  V30 28 1 25 29
M  V30 29 1 26 30
M  V30 30 3 31 32
M  V30 31 1 32 33
M  V30 32 2 33 34
M  V30 33 1 34 35
M  V30 34 2 35 36
M  V30 35 1 36 37
M  V30 36 2 37 38
M  V30 37 1 38 39
M  V30 38 2 39 40
M  V30 39 1 40 41
M  V30 40 2 41 42
M  V30 41 1 42 33
M  V30 42 1 42 37
M  V30 43 1 34 43
M  V30 44 1 35 44
M  V30 45 1 36 45
M  V30 46 1 38 46
M  V30 47 1 39 47
M  V30 48 1 41 48
M  V30 49 1 3 21
M  V30 50 1 24 31
M  V30 51 3 49 50
M  V30 52 1 50 51
M  V30 53 2 51 52
M  V30 54 1 52 53
M  V30 55 2 53 54
M  V30 56 1 54 55
M  V30 57 2 55 56
M  V30 58 1 56 57
M  V30 59 2 57 58
M  V30 60 1 58 59
M  V30 61 2 59 60
M  V30 62 1 60 51
M  V30 63 1 60 55
M  V30 64 1 52 61
M  V30 65 1 53 62
M  V30 66 1 54 63
M  V30 67 1 56 64
M  V30 68 1 58 65
M  V30 69 1 59 66
M  V30 70 2 67 68
M  V30 71 1 68 69
M  V30 72 2 69 70
M  V30 73 1 70 71
M  V30 74 2 71 72
M  V30 75 1 72 67
M  V30 76 1 68 73
M  V30 77 1 69 74
M  V30 78 1 71 75
M  V30 79 1 72 76
M  V30 80 3 77 78
M  V30 81 1 78 79
M  V30 82 2 79 80
M  V30 83 1 80 81
M  V30 84 2 81 82
M  V30 85 1 82 83
M  V30 86 2 83 84
M  V30 87 1 84 85
M  V30 88 2 85 86
M  V30 89 1 86 87
M  V30 90 2 87 88
M  V30 91 1 88 79
M  V30 92 1 88 83
M  V30 93 1 80 89
M  V30 94 1 81 90
M  V30 95 1 82 91
M  V30 96 1 84 92
M  V30 97 1 85 93
M  V30 98 1 87 94
M  V30 99 1 49 67
M  V30 100 1 70 77
M  V30 101 3 95 96
M  V30 102 1 96 97
M  V30 103 2 97 98
M  V30 104 1 98 99
M  V30 105 2 99 100
M  V30 106 1 100 101
M  V30 107 2 101 102
M  V30 108 1 102 103
M  V30 109 2 103 104
M  V30 110 1 104 105
M  V30 111 2 105 106
M  V30 112 1 106 97
M  V30 113 1 106 101
M  V30 114 1 98 107
M  V30 115 1 99 108
M  V30 116 1 100 109
M  V30 117 1 102 110
M  V30 118 1 104 111
M  V30 119 1 105 112
M  V30 120 2 113 114
M  V30 121 1 114 115
M  V30 122 2 115 116
M  V30 123 1 116 117
M  V30 124 2 117 118
M  V30 125 1 118 113
M  V30 126 1 114 119
M  V30 127 1 115 120
M  V30 128 1 117 121
M  V30 129 1 118 122
M  V30 130 3 123 124
M  V30 131 1 124 125
M  V30 132 2 125 126
M  V30 133 1 126 127
M  V30 134 2 127 128
M  V30 135 1 128 129
M  V30 136 2 129 130
M  V30 137 1 130 131
M  V30 138 2 131 132
M  V30 139 1 132 133
M  V30 140 2 133 134
M  V30 141 1 134 125
M  V30 142 1 134 129
M  V30 143 1 126 135
M  V30 144 1 127 136
M  V30 145 1 128 137
M  V30 146 1 130 138
M  V30 147 1 131 139
M  V30 148 1 133 140
M  V30 149 1 95 113
M  V30 150 1 116 123
M  V30 151 3 141 142
M  V30 152 1 142 143
M  V30 153 2 143 144
M  V30 154 1 144 145
M  V30 155 2 145 146
M  V30 156 1 146 147
M  V30 157 2 147 148
M  V30 158 1 148 149
M  V30 159 2 149 150
M  V30 160 1 150 151
M  V30 161 2 151 152
M  V30 162 1 152 143
M  V30 163 1 152 147
M  V30 164 1 144 153
M  V30 165 1 145 154
M  V30 166 1 146 155
M  V30 167 1 148 156
M  V30 168 1 150 157
M  V30 169 1 151 158
M  V30 170 2 159 160
M  V30 171 1 160 161
M  V30 172 2 161 162
M  V30 173 1 162 163
M  V30 174 2 163 164
M  V30 175 1 164 159
M  V30 176 1 160 165
M  V30 177 1 161 166
M  V30 178 1 163 167
M  V30 179 1 164 168
M  V30 180 3 169 170
M  V30 181 1 170 171
M  V30 182 2 171 172
M  V30 183 1 172 173
M  V30 184 2 173 174
M  V30 185 1 174 175
M  V30 186 2 175 176
M  V30 187 1 176 177
M  V30 188 2 177 178
M  V30 189 1 178 179
M  V30 190 2 179 180
M  V30 191 1 180 171
M  V30 192 1 180 175
M  V30 193 1 172 181
M  V30 194 1 173 182
M  V30 195 1 174 183
M  V30 196 1 176 184
M  V30 197 1 177 185
M  V30 198 1 179 186
M  V30 199 1 141 159
M  V30 200 1 162 169
M  V30 201 9 40 1
M  V30 202 9 86 1
M  V30 203 9 103 1
M  V30 204 9 149 1
M  V30 205 9 11 2
M  V30 206 9 57 2
M  V30 207 9 132 2
M  V30 208 9 178 2
M  V30 END BOND
M  V30 END CTAB
M  END

$$$$
