
     RDKit          3D

  0  0  0  0  0  0  0  0  0  0999 V3000
M  V30 BEGIN CTAB
M  V30 COUNTS 186 208 0 0 0
M  V30 BEGIN ATOM
M  V30 1 Pd 0.4263 7.0077 0.5938 0 CHG=2
M  V30 2 Pd -0.9219 -6.7710 -0.4585 0 CHG=2
M  V30 3 C 5.0349 -1.8775 -0.3138 0
M  V30 4 C 4.9248 -3.0810 -0.3693 0
M  V30 5 C 4.7573 -4.4783 -0.3764 0
M  V30 6 C 5.8254 -5.3287 -0.1475 0
M  V30 7 C 5.6448 -6.7155 -0.0961 0
M  V30 8 C 4.4007 -7.2724 -0.2480 0
M  V30 9 C 3.2862 -6.4406 -0.4877 0
M  V30 10 C 1.9766 -6.9445 -0.6044 0
M  V30 11 N 0.9359 -6.1704 -0.8284 0
M  V30 12 C 1.1063 -4.8350 -0.9997 0
M  V30 13 C 2.3304 -4.2428 -0.8778 0
M  V30 14 C 3.4614 -5.0306 -0.5828 0
M  V30 15 H 6.8111 -4.9136 -0.0008 0
M  V30 16 H 6.5018 -7.3474 0.0796 0
M  V30 17 H 4.2634 -8.3401 -0.1863 0
M  V30 18 H 1.7883 -8.0102 -0.5013 0
M  V30 19 H 0.2049 -4.2734 -1.2378 0
M  V30 20 H 2.4500 -3.1782 -0.9977 0
M  V30 21 C 5.1426 -0.4758 -0.2393 0
M  V30 22 C 6.3882 0.1299 -0.0372 0
M  V30 23 C 6.4871 1.5016 0.0392 0
M  V30 24 C 5.3419 2.2985 -0.0814 0
M  V30 25 C 4.0961 1.6918 -0.2786 0
M  V30 26 C 3.9976 0.3212 -0.3587 0
M  V30 27 H 7.2716 -0.4843 0.0540 0
M  V30 28 H 7.4482 1.9699 0.1905 0
M  V30 29 H 3.2181 2.3091 -0.3806 0
M  V30 30 H 3.0399 -0.1485 -0.5179 0
M  V30 31 C 5.4557 3.7006 -0.0348 0
M  V30 32 C 5.5536 4.9071 -0.0237 0
M  V30 33 C 5.7373 6.2995 -0.0960 0
M  V30 34 C 7.0084 6.8161 -0.2781 0
M  V30 35 C 7.2137 8.1907 -0.4289 0
M  V30 36 C 6.1578 9.0684 -0.4199 0
M  V30 37 C 4.8493 8.5905 -0.2270 0
M  V30 38 C 3.7168 9.4362 -0.2227 0
M  V30 39 C 2.4764 8.9097 -0.0089 0
M  V30 40 N 2.2870 7.5890 0.2333 0
M  V30 41 C 3.3153 6.7640 0.2131 0
M  V30 42 C 4.6274 7.1956 -0.0357 0
M  V30 43 H 7.8520 6.1439 -0.3161 0
M  V30 44 H 8.2190 8.5578 -0.5689 0
M  V30 45 H 6.3175 10.1260 -0.5599 0
M  V30 46 H 3.8454 10.4934 -0.3917 0
M  V30 47 H 1.5816 9.5295 -0.0224 0
M  V30 48 H 3.1167 5.7126 0.4090 0
M  V30 49 C 1.3578 -1.9407 5.1091 0
M  V30 50 C 1.2915 -3.1437 5.0002 0
M  V30 51 C 1.2508 -4.5390 4.8161 0
M  V30 52 C 1.8800 -5.3974 5.7008 0
M  V30 53 C 1.8903 -6.7796 5.4801 0
M  V30 54 C 1.2947 -7.3226 4.3708 0
M  V30 55 C 0.6342 -6.4824 3.4491 0
M  V30 56 C 0.0396 -6.9713 2.2702 0
M  V30 57 N -0.5822 -6.1902 1.4120 0
M  V30 58 C -0.7067 -4.8636 1.6675 0
M  V30 59 C -0.1400 -4.2844 2.7666 0
M  V30 60 C 0.5825 -5.0782 3.6805 0
M  V30 61 H 2.3774 -4.9923 6.5689 0
M  V30 62 H 2.3889 -7.4181 6.1930 0
M  V30 63 H 1.3239 -8.3860 4.1942 0
M  V30 64 H 0.0879 -8.0311 2.0317 0
M  V30 65 H -1.2881 -4.2971 0.9433 0
M  V30 66 H -0.2333 -3.2258 2.9488 0
M  V30 67 C 1.4205 -0.5373 5.2089 0
M  V30 68 C 1.6488 0.0793 6.4442 0
M  V30 69 C 1.6855 1.4532 6.5349 0
M  V30 70 C 1.5005 2.2410 5.3917 0
M  V30 71 C 1.2936 1.6225 4.1534 0
M  V30 72 C 1.2503 0.2497 4.0634 0
M  V30 73 H 1.7865 -0.5276 7.3267 0
M  V30 74 H 1.8516 1.9304 7.4892 0
M  V30 75 H 1.1649 2.2307 3.2727 0
M  V30 76 H 1.0876 -0.2314 3.1120 0
M  V30 77 C 1.4906 3.6437 5.5091 0
M  V30 78 C 1.4407 4.8474 5.6269 0
M  V30 79 C 1.3266 6.2299 5.8576 0
M  V30 80 C 1.4716 6.7237 7.1428 0
M  V30 81 C 1.2980 8.0834 7.4177 0
M  V30 82 C 0.9593 8.9679 6.4236 0
M  V30 83 C 0.8074 8.5135 5.1015 0
M  V30 84 C 0.4422 9.3666 4.0355 0
M  V30 85 C 0.3261 8.8641 2.7723 0
M  V30 86 N 0.5783 7.5622 2.4899 0
M  V30 87 C 0.9014 6.7303 3.4603 0
M  V30 88 C 1.0143 7.1358 4.7992 0
M  V30 89 H 1.7141 6.0446 7.9458 0
M  V30 90 H 1.4207 8.4324 8.4316 0
M  V30 91 H 0.8055 10.0128 6.6430 0
M  V30 92 H 0.2548 10.4098 4.2333 0
M  V30 93 H 0.0248 9.4884 1.9331 0
M  V30 94 H 1.0913 5.6941 3.1879 0
M  V30 95 C -5.5494 2.1458 0.1666 0
M  V30 96 C -5.4321 3.3493 0.2046 0
M  V30 97 C -5.2528 4.7457 0.1960 0
M  V30 98 C -6.2968 5.6006 -0.1111 0
M  V30 99 C -6.0990 6.9846 -0.1798 0
M  V30 100 C -4.8608 7.5331 0.0355 0
M  V30 101 C -3.7717 6.6964 0.3608 0
M  V30 102 C -2.4677 7.1913 0.5530 0
M  V30 103 N -1.4516 6.4136 0.8624 0
M  V30 104 C -1.6464 5.0841 1.0505 0
M  V30 105 C -2.8653 4.4994 0.8588 0
M  V30 106 C -3.9664 5.2901 0.4720 0
M  V30 107 H -7.2758 5.1916 -0.3092 0
M  V30 108 H -6.9373 7.6203 -0.4197 0
M  V30 109 H -4.7088 8.5980 -0.0396 0
M  V30 110 H -2.2632 8.2533 0.4399 0
M  V30 111 H -0.7714 4.5202 1.3661 0
M  V30 112 H -3.0021 3.4389 0.9965 0
M  V30 113 C -5.6559 0.7421 0.1274 0
M  V30 114 C -4.5116 -0.0366 -0.0839 0
M  V30 115 C -4.6029 -1.4099 -0.1071 0
M  V30 116 C -5.8388 -2.0371 0.0878 0
M  V30 117 C -6.9857 -1.2574 0.2841 0
M  V30 118 C -6.8958 0.1171 0.3009 0
M  V30 119 H -3.5610 0.4510 -0.2301 0
M  V30 120 H -3.7239 -2.0118 -0.2716 0
M  V30 121 H -7.9403 -1.7411 0.4278 0
M  V30 122 H -7.7796 0.7176 0.4573 0
M  V30 123 C -5.9389 -3.4407 0.1235 0
M  V30 124 C -6.0282 -4.6455 0.1989 0
M  V30 125 C -6.2029 -6.0305 0.3696 0
M  V30 126 C -7.4644 -6.5337 0.6375 0
M  V30 127 C -7.6619 -7.8963 0.8791 0
M  V30 128 C -6.6065 -8.7748 0.8768 0
M  V30 129 C -5.3075 -8.3107 0.6033 0
M  V30 130 C -4.1758 -9.1574 0.6036 0
M  V30 131 C -2.9444 -8.6455 0.3152 0
M  V30 132 N -2.7645 -7.3401 -0.0035 0
M  V30 133 C -3.7921 -6.5141 0.0055 0
M  V30 134 C -5.0948 -6.9296 0.3216 0
M  V30 135 H -8.3067 -5.8595 0.6685 0
M  V30 136 H -8.6601 -8.2528 1.0829 0
M  V30 137 H -6.7596 -9.8221 1.0844 0
M  V30 138 H -4.2976 -10.2033 0.8360 0
M  V30 139 H -2.0493 -9.2649 0.3288 0
M  V30 140 H -3.6003 -5.4749 -0.2532 0
M  V30 141 C -1.5764 2.1484 -5.0469 0
M  V30 142 C -1.4959 3.3518 -4.9511 0
M  V30 143 C -1.4444 4.7481 -4.7832 0
M  V30 144 C -2.0063 5.6028 -5.7160 0
M  V30 145 C -2.0062 6.9880 -5.5169 0
M  V30 146 C -1.4699 7.5389 -4.3811 0
M  V30 147 C -0.8831 6.7026 -3.4077 0
M  V30 148 C -0.3591 7.1996 -2.1990 0
M  V30 149 N 0.1893 6.4213 -1.2901 0
M  V30 150 C 0.3059 5.0884 -1.5172 0
M  V30 151 C -0.1955 4.5025 -2.6439 0
M  V30 152 C -0.8398 5.2945 -3.6158 0
M  V30 153 H -2.4565 5.1923 -6.6071 0
M  V30 154 H -2.4493 7.6235 -6.2682 0
M  V30 155 H -1.4914 8.6052 -4.2225 0
M  V30 156 H -0.4037 8.2633 -1.9788 0
M  V30 157 H 0.8219 4.5238 -0.7431 0
M  V30 158 H -0.1131 3.4397 -2.8044 0
M  V30 159 C -1.6739 0.7468 -5.1360 0
M  V30 160 C -1.1887 -0.0557 -4.0962 0
M  V30 161 C -1.2888 -1.4262 -4.1744 0
M  V30 162 C -1.8726 -2.0273 -5.2956 0
M  V30 163 C -2.3588 -1.2250 -6.3351 0
M  V30 164 C -2.2620 0.1466 -6.2555 0
M  V30 165 H -0.7328 0.4098 -3.2368 0
M  V30 166 H -0.9069 -2.0477 -3.3806 0
M  V30 167 H -2.8082 -1.6890 -7.2004 0
M  V30 168 H -2.6354 0.7651 -7.0579 0
M  V30 169 C -1.9459 -3.4292 -5.3993 0
M  V30 170 C -1.9817 -4.6351 -5.4982 0
M  V30 171 C -1.9648 -6.0258 -5.7064 0
M  V30 172 C -2.1953 -6.5334 -6.9733 0
M  V30 173 C -2.1112 -7.9057 -7.2269 0
M  V30 174 C -1.7785 -8.7897 -6.2303 0
M  V30 175 C -1.5460 -8.3210 -4.9250 0
M  V30 176 C -1.1845 -9.1735 -3.8571 0
M  V30 177 C -0.9937 -8.6561 -2.6092 0
M  V30 178 N -1.1695 -7.3382 -2.3418 0
M  V30 179 C -1.4826 -6.5071 -3.3162 0
M  V30 180 C -1.6634 -6.9289 -4.6425 0
M  V30 181 H -2.4317 -5.8559 -7.7794 0
M  V30 182 H -2.2976 -8.2656 -8.2273 0
M  V30 183 H -1.6917 -9.8453 -6.4349 0
M  V30 184 H -1.0601 -10.2287 -4.0414 0
M  V30 185 H -0.6924 -9.2811 -1.7705 0
M  V30 186 H -1.6101 -5.4582 -3.0571 0
M  V30 END ATOM
M  V30 BEGIN BOND
M  V30 1 3 3 4
M  V30 2 1 4 5
M  V30 3 2 5 6
M  V30 4 1 6 7
M  V30 5 2 7 8
M  V30 6 1 8 9
M  V30 7 2 9 10
M  V30 8 1 10 11
M  V30 9 2 11 12
M  V30 10 1 12 13
M  V30 11 2 13 14
M  V30 12 1 14 5
M  V30 13 1 14 9
M  V30 14 1 6 15
M  V30 15 1 7 16
M  V30 16 1 8 17
M  V30 17 1 10 18
M  V30 18 1 12 19
M  V30 19 1 13 20
M  V30 20 2 21 22
M  V30 21 1 22 23
M  V30 22 2 23 24
M  V30 23 1 24 25
M  V30 24 2 25 26
M  V30 25 1 26 21
M  V30 26 1 22 27
M  V30 27 1 23 28
M  V30 28 1 25 29
M  V30 29 1 26 30
M  V30 30 3 31 32
M  V30 31 1 32 33
M  V30 32 2 33 34
M  V30 33 1 34 35
M  V30 34 2 35 36
M  V30 35 1 36 37
M  V30 36 2 37 38
M  V30 37 1 38 39
M  V30 38 2 39 40
M  V30 39 1 40 41
M  V30 40 2 41 42
M  V30 41 1 42 33
M  V30 42 1 42 37
M  V30 43 1 34 43
M  V30 44 1 35 44
M  V30 45 1 36 45
M  V30 46 1 38 46
M  V30 47 1 39 47
M  V30 48 1 41 48
M  V30 49 1 3 21
M  V30 50 1 24 31
M  V30 51 3 49 50
M  V30 52 1 50 51
M  V30 53 2 51 52
M  V30 54 1 52 53
M  V30 55 2 53 54
M  V30 56 1 54 55
M  V30 57 2 55 56
M  V30 58 1 56 57
M  V30 59 2 57 58
M  V30 60 1 58 59
M  V30 61 2 59 60
M  V30 62 1 60 51
M  V30 63 1 60 55
M  V30 64 1 52 61
M  V30 65 1 53 62
M  V30 66 1 54 63
M  V30 67 1 56 64
M  V30 68 1 58 65
M  V30 69 1 59 66
M  V30 70 2 67 68
M  V30 71 1 68 69
M  V30 72 2 69 70
M  V30 73 1 70 71
M  V30 74 2 71 72
M  V30 75 1 72 67
M  V30 76 1 68 73
M  V30 77 1 69 74
M  V30 78 1 71 75
M  V30 79 1 72 76
M  V30 80 3 77 78
M  V30 81 1 78 79
M  V30 82 2 79 80
M  V30 83 1 80 81
M  V30 84 2 81 82
M  V30 85 1 82 83
M  V30 86 2 83 84
M  V30 87 1 84 85
M  V30 88 2 85 86
M  V30 89 1 86 87
M  V30 90 2 87 88
M  V30 91 1 88 79
M  V30 92 1 88 83
M  V30 93 1 80 89
M  V30 94 1 81 90
M  V30 95 1 82 91
M  V30 96 1 84 92
M  V30 97 1 85 93
M  V30 98 1 87 94
M  V30 99 1 49 67
M  V30 100 1 70 77
M  V30 101 3 95 96
M  V30 102 1 96 97
M  V30 103 2 97 98
M  V30 104 1 98 99
M  V30 105 2 99 100
M  V30 106 1 100 101
M  V30 107 2 101 102
M  V30 108 1 102 103
M  V30 109 2 103 104
M  V30 110 1 104 105
M  V30 111 2 105 106
M  V30 112 1 106 97
M  V30 113 1 106 101
M  V30 114 1 98 107
M  V30 115 1 99 108
M  V30 116 1 100 109
M  V30 117 1 102 110
M  V30 118 1 104 111
M  V30 119 1 105 112
M  V30 120 2 113 114
M  V30 121 1 114 115
M  V30 122 2 115 116
M  V30 123 1 116 117
M  V30 124 2 117 118
M  V30 125 1 118 113
M  V30 126 1 114 119
M  V30 127 1 115 120
M  V30 128 1 117 121
M  V30 129 1 118 122
M  V30 130 3 123 124
M  V30 131 1 124 125
M  V30 132 2 125 126
M  V30 133 1 126 127
M  V30 134 2 127 128
M  V30 135 1 128 129
M  V30 136 2 129 130
M  V30 137 1 130 131
M  V30 138 2 131 132
M  V30 139 1 132 133
M  V30 140 2 133 134
M  V30 141 1 134 125
M  V30 142 1 134 129
M  V30 143 1 126 135
M  V30 144 1 127 136
M  V30 145 1 128 137
M  V30 146 1 130 138
M  V30 147 1 131 139
M  V30 148 1 133 140
M  V30 149 1 95 113
M  V30 150 1 116 123
M  V30 151 3 141 142
M  V30 152 1 142 143
M  V30 153 2 143 144
M  V30 154 1 144 145
M  V30 155 2 145 146
M  V30 156 1 146 147
M  V30 157 2 147 148
M  V30 158 1 148 149
M  V30 159 2 149 150
M  V30 160 1 150 151
M  V30 161 2 151 152
M  V30 162 1 152 143
M  V30 163 1 152 147
M  V30 164 1 144 153
M  V30 165 1 145 154
M  V30 166 1 146 155
M  V30 167 1 148 156
M  V30 168 1 150 157
M  V30 169 1 151 158
M  V30 170 2 159 160
M  V30 171 1 160 161
M  V30 172 2 161 162
M  V30 173 1 162 163
M  V30 174 2 163 164
M  V30 175 1 164 159
M  V30 176 1 160 165
M  V30 177 1 161 166
M  V30 178 1 163 167
M  V30 179 1 164 168
M  V30 180 3 169 170
M  V30 181 1 170 171
M  V30 182 2 171 172
M  V30 183 1 172 173
M  V30 184 2 173 174
M  V30 185 1 174 175
M  V30 186 2 175 176
M  V30 187 1 176 177
M  V30 188 2 177 178
M  V30 189 1 178 179
M  V30 190 2 179 180
M  V30 191 1 180 171
M  V30 192 1 180 175
M  V30 193 1 172 181
M  V30 194 1 173 182
M  V30 195 1 174 183
M  V30 196 1 176 184
M  V30 197 1 177 185
M  V30 198 1 179 186
M  V30 199 1 141 159
M  V30 200 1 162 169
M  V30 201 9 40 1
M  V30 202 9 86 1
M  V30 203 9 103 1
M  V30 204 9 149 1
M  V30 205 9 11 2
M  V30 206 9 57 2
M  V30 207 9 132 2
M  V30 208 9 178 2
M  V30 END BOND
M  V30 END CTAB
M  END

$$$$
