
     RDKit          3D

  0  0  0  0  0  0  0  0  0  0999 V3000
M  V30 BEGIN CTAB
M  V30 COUNTS 186 208 0 0 0
M  V30 BEGIN ATOM
M  V30 1 Pd 6.8870 -0.5610 0.6693 0 CHG=2
M  V30 2 Pd -6.8913 0.4991 -0.6771 0 CHG=2
M  V30 3 C -0.8186 3.9347 -3.9590 0
M  V30 4 C -2.0174 4.0054 -4.1062 0
M  V30 5 C -3.4130 4.0186 -4.2871 0
M  V30 6 C -3.9866 4.6313 -5.3878 0
M  V30 7 C -5.3700 4.5914 -5.5959 0
M  V30 8 C -6.1964 3.9245 -4.7280 0
M  V30 9 C -5.6518 3.2904 -3.5910 0
M  V30 10 C -6.4380 2.5493 -2.6880 0
M  V30 11 N -5.9321 1.9576 -1.6268 0
M  V30 12 C -4.6110 2.0840 -1.3429 0
M  V30 13 C -3.7573 2.7569 -2.1689 0
M  V30 14 C -4.2508 3.3572 -3.3449 0
M  V30 15 H -3.3552 5.1424 -6.0987 0
M  V30 16 H -5.7820 5.0847 -6.4628 0
M  V30 17 H -7.2592 3.8785 -4.9041 0
M  V30 18 H -7.5066 2.4386 -2.8549 0
M  V30 19 H -4.2825 1.6135 -0.4182 0
M  V30 20 H -2.7063 2.8346 -1.9421 0
M  V30 21 C 0.5739 3.8314 -3.7793 0
M  V30 22 C 1.4522 4.4580 -4.6710 0
M  V30 23 C 2.8137 4.3500 -4.4929 0
M  V30 24 C 3.3277 3.6101 -3.4208 0
M  V30 25 C 2.4487 2.9798 -2.5325 0
M  V30 26 C 1.0881 3.0907 -2.7081 0
M  V30 27 H 1.0561 5.0300 -5.4968 0
M  V30 28 H 3.4920 4.8368 -5.1777 0
M  V30 29 H 2.8481 2.4191 -1.7028 0
M  V30 30 H 0.4085 2.6122 -2.0209 0
M  V30 31 C 4.7196 3.5314 -3.2269 0
M  V30 32 C 5.9148 3.4854 -3.0408 0
M  V30 33 C 7.3024 3.5423 -2.8198 0
M  V30 34 C 8.0674 4.4786 -3.4937 0
M  V30 35 C 9.4359 4.6097 -3.2398 0
M  V30 36 C 10.0589 3.8260 -2.3000 0
M  V30 37 C 9.3243 2.8537 -1.5981 0
M  V30 38 C 9.8990 2.0254 -0.6075 0
M  V30 39 C 9.1337 1.0869 0.0213 0
M  V30 40 N 7.8288 0.8940 -0.2930 0
M  V30 41 C 7.2502 1.6630 -1.1941 0
M  V30 42 C 7.9359 2.6832 -1.8715 0
M  V30 43 H 7.5953 5.1250 -4.2176 0
M  V30 44 H 10.0010 5.3506 -3.7845 0
M  V30 45 H 11.1101 3.9459 -2.0899 0
M  V30 46 H 10.9405 2.1461 -0.3561 0
M  V30 47 H 9.5394 0.4491 0.8046 0
M  V30 48 H 6.2010 1.4753 -1.4122 0
M  V30 49 C -1.2277 -2.5289 -4.9529 0
M  V30 50 C -2.4209 -2.3895 -5.0959 0
M  V30 51 C -3.8017 -2.1609 -5.2491 0
M  V30 52 C -4.4240 -2.3258 -6.4742 0
M  V30 53 C -5.7840 -2.0373 -6.6367 0
M  V30 54 C -6.5356 -1.5637 -5.5921 0
M  V30 55 C -5.9410 -1.3906 -4.3240 0
M  V30 56 C -6.6456 -0.8695 -3.2222 0
M  V30 57 N -6.0948 -0.7127 -2.0368 0
M  V30 58 C -4.8107 -1.0982 -1.8280 0
M  V30 59 C -4.0312 -1.5864 -2.8373 0
M  V30 60 C -4.5678 -1.7165 -4.1343 0
M  V30 61 H -3.8482 -2.6738 -7.3183 0
M  V30 62 H -6.2355 -2.1803 -7.6062 0
M  V30 63 H -7.5778 -1.3226 -5.7278 0
M  V30 64 H -7.6855 -0.5698 -3.3294 0
M  V30 65 H -4.4483 -0.9957 -0.8076 0
M  V30 66 H -3.0071 -1.8741 -2.6606 0
M  V30 67 C 0.1587 -2.6810 -4.7575 0
M  V30 68 C 0.9121 -3.4985 -5.6074 0
M  V30 69 C 2.2635 -3.6586 -5.3938 0
M  V30 70 C 2.8925 -3.0005 -4.3295 0
M  V30 71 C 2.1416 -2.1664 -3.4933 0
M  V30 72 C 0.7900 -2.0113 -3.7023 0
M  V30 73 H 0.4267 -4.0100 -6.4251 0
M  V30 74 H 2.8440 -4.2970 -6.0429 0
M  V30 75 H 2.6305 -1.6503 -2.6829 0
M  V30 76 H 0.2066 -1.3724 -3.0585 0
M  V30 77 C 4.2638 -3.2139 -4.0942 0
M  V30 78 C 5.4330 -3.4372 -3.8741 0
M  V30 79 C 6.7714 -3.8022 -3.6441 0
M  V30 80 C 7.3915 -4.7016 -4.4944 0
M  V30 81 C 8.6984 -5.1371 -4.2563 0
M  V30 82 C 9.4005 -4.7001 -3.1602 0
M  V30 83 C 8.8140 -3.7811 -2.2717 0
M  V30 84 C 9.4736 -3.3057 -1.1156 0
M  V30 85 C 8.8533 -2.4027 -0.3025 0
M  V30 86 N 7.6190 -1.9143 -0.5791 0
M  V30 87 C 6.9628 -2.3487 -1.6369 0
M  V30 88 C 7.4945 -3.3017 -2.5192 0
M  V30 89 H 6.8520 -5.0784 -5.3499 0
M  V30 90 H 9.1500 -5.8377 -4.9420 0
M  V30 91 H 10.4010 -5.0542 -2.9680 0
M  V30 92 H 10.4634 -3.6661 -0.8855 0
M  V30 93 H 9.3236 -2.0335 0.6071 0
M  V30 94 H 5.9742 -1.9319 -1.8176 0
M  V30 95 C 0.8171 -3.8023 4.1595 0
M  V30 96 C 2.0160 -3.8551 4.3132 0
M  V30 97 C 3.4119 -3.8487 4.4958 0
M  V30 98 C 3.9887 -4.3878 5.6323 0
M  V30 99 C 5.3717 -4.3235 5.8390 0
M  V30 100 C 6.1939 -3.7067 4.9313 0
M  V30 101 C 5.6462 -3.1527 3.7544 0
M  V30 102 C 6.4289 -2.4706 2.8034 0
M  V30 103 N 5.9213 -1.9583 1.7021 0
M  V30 104 C 4.6020 -2.1139 1.4257 0
M  V30 105 C 3.7508 -2.7321 2.2962 0
M  V30 106 C 4.2460 -3.2447 3.5124 0
M  V30 107 H 3.3602 -4.8569 6.3740 0
M  V30 108 H 5.7860 -4.7571 6.7361 0
M  V30 109 H 7.2560 -3.6409 5.1053 0
M  V30 110 H 7.4965 -2.3413 2.9644 0
M  V30 111 H 4.2719 -1.7182 0.4678 0
M  V30 112 H 2.7015 -2.8348 2.0707 0
M  V30 113 C -0.5740 -3.7242 3.9551 0
M  V30 114 C -1.0985 -2.7402 3.1082 0
M  V30 115 C -2.4554 -2.6665 2.8890 0
M  V30 116 C -3.3192 -3.5793 3.5050 0
M  V30 117 C -2.7955 -4.5540 4.3639 0
M  V30 118 C -1.4383 -4.6240 4.5887 0
M  V30 119 H -0.4287 -2.0413 2.6330 0
M  V30 120 H -2.8620 -1.9087 2.2391 0
M  V30 121 H -3.4625 -5.2540 4.8445 0
M  V30 122 H -1.0347 -5.3789 5.2471 0
M  V30 123 C -4.7024 -3.5526 3.2463 0
M  V30 124 C -5.8869 -3.5651 2.9968 0
M  V30 125 C -7.2571 -3.6898 2.7055 0
M  V30 126 C -7.9996 -4.6844 3.3185 0
M  V30 127 C -9.3472 -4.8787 3.0013 0
M  V30 128 C -9.9705 -4.1004 2.0572 0
M  V30 129 C -9.2582 -3.0733 1.4128 0
M  V30 130 C -9.8336 -2.2488 0.4194 0
M  V30 131 C -9.0908 -1.2598 -0.1565 0
M  V30 132 N -7.8093 -1.0150 0.2120 0
M  V30 133 C -7.2305 -1.7754 1.1203 0
M  V30 134 C -7.8928 -2.8407 1.7497 0
M  V30 135 H -7.5260 -5.3249 4.0467 0
M  V30 136 H -9.8949 -5.6632 3.5008 0
M  V30 137 H -11.0046 -4.2668 1.7998 0
M  V30 138 H -10.8574 -2.4131 0.1234 0
M  V30 139 H -9.4960 -0.6219 -0.9401 0
M  V30 140 H -6.2000 -1.5447 1.3823 0
M  V30 141 C 1.2497 2.7078 4.7895 0
M  V30 142 C 2.4452 2.5876 4.9311 0
M  V30 143 C 3.8280 2.3780 5.0876 0
M  V30 144 C 4.4573 2.6238 6.2959 0
M  V30 145 C 5.8208 2.3579 6.4659 0
M  V30 146 C 6.5693 1.8247 5.4479 0
M  V30 147 C 5.9667 1.5638 4.1988 0
M  V30 148 C 6.6664 0.9729 3.1294 0
M  V30 149 N 6.1064 0.7294 1.9634 0
M  V30 150 C 4.8170 1.0892 1.7400 0
M  V30 151 C 4.0428 1.6419 2.7193 0
M  V30 152 C 4.5899 1.8671 3.9988 0
M  V30 153 H 3.8847 3.0208 7.1203 0
M  V30 154 H 6.2782 2.5667 7.4207 0
M  V30 155 H 7.6146 1.6017 5.5906 0
M  V30 156 H 7.7093 0.6890 3.2471 0
M  V30 157 H 4.4462 0.9060 0.7333 0
M  V30 158 H 3.0141 1.9065 2.5352 0
M  V30 159 C -0.1416 2.8287 4.6123 0
M  V30 160 C -0.7281 2.4481 3.3990 0
M  V30 161 C -2.0889 2.5565 3.2232 0
M  V30 162 C -2.8954 3.0518 4.2545 0
M  V30 163 C -2.3094 3.4314 5.4682 0
M  V30 164 C -0.9481 3.3197 5.6457 0
M  V30 165 H -0.1034 2.0738 2.6036 0
M  V30 166 H -2.5425 2.2745 2.2868 0
M  V30 167 H -2.9318 3.8143 6.2633 0
M  V30 168 H -0.4962 3.6141 6.5811 0
M  V30 169 C -4.2830 3.1996 4.0696 0
M  V30 170 C -5.4714 3.3521 3.8977 0
M  V30 171 C -6.8372 3.6364 3.7204 0
M  V30 172 C -7.4878 4.4666 4.6166 0
M  V30 173 C -8.8248 4.8278 4.4255 0
M  V30 174 C -9.5275 4.3849 3.3321 0
M  V30 175 C -8.9109 3.5308 2.4003 0
M  V30 176 C -9.5707 3.0516 1.2459 0
M  V30 177 C -8.9207 2.2081 0.3927 0
M  V30 178 N -7.6555 1.7804 0.6283 0
M  V30 179 C -6.9981 2.2244 1.6813 0
M  V30 180 C -7.5595 3.1244 2.6004 0
M  V30 181 H -6.9489 4.8499 5.4695 0
M  V30 182 H -9.2998 5.4770 5.1453 0
M  V30 183 H -10.5518 4.6845 3.1757 0
M  V30 184 H -10.5847 3.3610 1.0491 0
M  V30 185 H -9.3916 1.8394 -0.5167 0
M  V30 186 H -5.9846 1.8579 1.8291 0
M  V30 END ATOM
M  V30 BEGIN BOND
M  V30 1 3 3 4
M  V30 2 1 4 5
M  V30 3 2 5 6
M  V30 4 1 6 7
M  V30 5 2 7 8
M  V30 6 1 8 9
M  V30 7 2 9 10
M  V30 8 1 10 11
M  V30 9 2 11 12
M  V30 10 1 12 13
M  V30 11 2 13 14
M  V30 12 1 14 5
M  V30 13 1 14 9
M  V30 14 1 6 15
M  V30 15 1 7 16
M  V30 16 1 8 17
M  V30 17 1 10 18
M  V30 18 1 12 19
M  V30 19 1 13 20
M  V30 20 2 21 22
M  V30 21 1 22 23
M  V30 22 2 23 24
M  V30 23 1 24 25
M  V30 24 2 25 26
M  V30 25 1 26 21
M  V30 26 1 22 27
M  V30 27 1 23 28
M  V30 28 1 25 29
M  V30 29 1 26 30
M  V30 30 3 31 32
M  V30 31 1 32 33
M  V30 32 2 33 34
M  V30 33 1 34 35
M  V30 34 2 35 36
M  V30 35 1 36 37
M  V30 36 2 37 38
M  V30 37 1 38 39
M  V30 38 2 39 40
M  V30 39 1 40 41
M  V30 40 2 41 42
M  V30 41 1 42 33
M  V30 42 1 42 37
M  V30 43 1 34 43
M  V30 44 1 35 44
M  V30 45 1 36 45
M  V30 46 1 38 46
M  V30 47 1 39 47
M  V30 48 1 41 48
M  V30 49 1 3 21
M  V30 50 1 24 31
M  V30 51 3 49 50
M  V30 52 1 50 51
M  V30 53 2 51 52
M  V30 54 1 52 53
M  V30 55 2 53 54
M  V30 56 1 54 55
M  V30 57 2 55 56
M  V30 58 1 56 57
M  V30 59 2 57 58
M  V30 60 1 58 59
M  V30 61 2 59 60
M  V30 62 1 60 51
M  V30 63 1 60 55
M  V30 64 1 52 61
M  V30 65 1 53 62
M  V30 66 1 54 63
M  V30 67 1 56 64
M  V30 68 1 58 65
M  V30 69 1 59 66
M  V30 70 2 67 68
M  V30 71 1 68 69
M  V30 72 2 69 70
M  V30 73 1 70 71
M  V30 74 2 71 72
M  V30 75 1 72 67
M  V30 76 1 68 73
M  V30 77 1 69 74
M  V30 78 1 71 75
M  V30 79 1 72 76
M  V30 80 3 77 78
M  V30 81 1 78 79
M  V30 82 2 79 80
M  V30 83 1 80 81
M  V30 84 2 81 82
M  V30 85 1 82 83
M  V30 86 2 83 84
M  V30 87 1 84 85
M  V30 88 2 85 86
M  V30 89 1 86 87
M  V30 90 2 87 88
M  V30 91 1 88 79
M  V30 92 1 88 83
M  V30 93 1 80 89
M  V30 94 1 81 90
M  V30 95 1 82 91
M  V30 96 1 84 92
M  V30 97 1 85 93
M  V30 98 1 87 94
M  V30 99 1 49 67
M  V30 100 1 70 77
M  V30 101 3 95 96
M  V30 102 1 96 97
M  V30 103 2 97 98
M  V30 104 1 98 99
M  V30 105 2 99 100
M  V30 106 1 100 101
M  V30 107 2 101 102
M  V30 108 1 102 103
M  V30 109 2 103 104
M  V30 110 1 104 105
M  V30 111 2 105 106
M  V30 112 1 106 97
M  V30 113 1 106 101
M  V30 114 1 98 107
M  V30 115 1 99 108
M  V30 116 1 100 109
M  V30 117 1 102 110
M  V30 118 1 104 111
M  V30 119 1 105 112
M  V30 120 2 113 114
M  V30 121 1 114 115
M  V30 122 2 115 116
M  V30 123 1 116 117
M  V30 124 2 117 118
M  V30 125 1 118 113
M  V30 126 1 114 119
M  V30 127 1 115 120
M  V30 128 1 117 121
M  V30 129 1 118 122
M  V30 130 3 123 124
M  V30 131 1 124 125
M  V30 132 2 125 126
M  V30 133 1 126 127
M  V30 134 2 127 128
M  V30 135 1 128 129
M  V30 136 2 129 130
M  V30 137 1 130 131
M  V30 138 2 131 132
M  V30 139 1 132 133
M  V30 140 2 133 134
M  V30 141 1 134 125
M  V30 142 1 134 129
M  V30 143 1 126 135
M  V30 144 1 127 136
M  V30 145 1 128 137
M  V30 146 1 130 138
M  V30 147 1 131 139
M  V30 148 1 133 140
M  V30 149 1 95 113
M  V30 150 1 116 123
M  V30 151 3 141 142
M  V30 152 1 142 143
M  V30 153 2 143 144
M  V30 154 1 144 145
M  V30 155 2 145 146
M  V30 156 1 146 147
M  V30 157 2 147 148
M  V30 158 1 148 149
M  V30 159 2 149 150
M  V30 160 1 150 151
M  V30 161 2 151 152
M  V30 162 1 152 143
M  V30 163 1 152 147
M  V30 164 1 144 153
M  V30 165 1 145 154
M  V30 166 1 146 155
M  V30 167 1 148 156
M  V30 168 1 150 157
M  V30 169 1 151 158
M  V30 170 2 159 160
M  V30 171 1 160 161
M  V30 172 2 161 162
M  V30 173 1 162 163
M  V30 174 2 163 164
M  V30 175 1 164 159
M  V30 176 1 160 165
M  V30 177 1 161 166
M  V30 178 1 163 167
M  V30 179 1 164 168
M  V30 180 3 169 170
M  V30 181 1 170 171
M  V30 182 2 171 172
M  V30 183 1 172 173
M  V30 184 2 173 174
M  V30 185 1 174 175
M  V30 186 2 175 176
M  V30 187 1 176 177
M  V30 188 2 177 178
M  V30 189 1 178 179
M  V30 190 2 179 180
M  V30 191 1 180 171
M  V30 192 1 180 175
M  V30 193 1 172 181
M  V30 194 1 173 182
M  V30 195 1 174 183
M  V30 196 1 176 184
M  V30 197 1 177 185
M  V30 198 1 179 186
M  V30 199 1 141 159
M  V30 200 1 162 169
M  V30 201 9 40 1
M  V30 202 9 86 1
M  V30 203 9 103 1
M  V30 204 9 149 1
M  V30 205 9 11 2
M  V30 206 9 57 2
M  V30 207 9 132 2
M  V30 208 9 178 2
M  V30 END BOND
M  V30 END CTAB
M  END

$$$$
