
     RDKit          3D

  0  0  0  0  0  0  0  0  0  0999 V3000
M  V30 BEGIN CTAB
M  V30 COUNTS 186 208 0 0 0
M  V30 BEGIN ATOM
M  V30 1 Pd 0.6821 -6.2725 2.8955 0 CHG=2
M  V30 2 Pd -0.7269 6.2502 -2.9332 0 CHG=2
M  V30 3 C 5.2087 1.5326 -1.5315 0
M  V30 4 C 5.0869 2.6078 -2.0728 0
M  V30 5 C 4.8967 3.8302 -2.7436 0
M  V30 6 C 5.8934 4.3757 -3.5344 0
M  V30 7 C 5.6804 5.5608 -4.2477 0
M  V30 8 C 4.4704 6.2049 -4.2030 0
M  V30 9 C 3.4295 5.6841 -3.4051 0
M  V30 10 C 2.1499 6.2695 -3.3532 0
M  V30 11 N 1.1779 5.7855 -2.6093 0
M  V30 12 C 1.4004 4.7053 -1.8184 0
M  V30 13 C 2.5965 4.0470 -1.8168 0
M  V30 14 C 3.6451 4.5011 -2.6422 0
M  V30 15 H 6.8470 3.8748 -3.6055 0
M  V30 16 H 6.4824 5.9589 -4.8501 0
M  V30 17 H 4.3043 7.1062 -4.7712 0
M  V30 18 H 1.9266 7.1520 -3.9475 0
M  V30 19 H 0.5640 4.4023 -1.1915 0
M  V30 20 H 2.7551 3.1788 -1.1980 0
M  V30 21 C 5.3286 0.2770 -0.9063 0
M  V30 22 C 6.5324 -0.4344 -0.9693 0
M  V30 23 C 6.6427 -1.6645 -0.3594 0
M  V30 24 C 5.5505 -2.2124 0.3246 0
M  V30 25 C 4.3456 -1.5025 0.3829 0
M  V30 26 C 4.2363 -0.2716 -0.2233 0
M  V30 27 H 7.3753 -0.0113 -1.4952 0
M  V30 28 H 7.5724 -2.2119 -0.4037 0
M  V30 29 H 3.5100 -1.9233 0.9185 0
M  V30 30 H 3.3114 0.2808 -0.1736 0
M  V30 31 C 5.6811 -3.4549 0.9727 0
M  V30 32 C 5.7986 -4.5096 1.5551 0
M  V30 33 C 6.0183 -5.6893 2.2884 0
M  V30 34 C 7.3114 -6.1339 2.5029 0
M  V30 35 C 7.5655 -7.2606 3.2906 0
M  V30 36 C 6.5405 -7.9493 3.8910 0
M  V30 37 C 5.2095 -7.5408 3.6928 0
M  V30 38 C 4.1093 -8.1941 4.2932 0
M  V30 39 C 2.8408 -7.7588 4.0419 0
M  V30 40 N 2.5877 -6.7254 3.2012 0
M  V30 41 C 3.5884 -6.0748 2.6412 0
M  V30 42 C 4.9317 -6.4157 2.8631 0
M  V30 43 H 8.1361 -5.5933 2.0640 0
M  V30 44 H 8.5867 -7.5785 3.4359 0
M  V30 45 H 6.7419 -8.8042 4.5172 0
M  V30 46 H 4.2850 -9.0320 4.9486 0
M  V30 47 H 1.9735 -8.2248 4.5063 0
M  V30 48 H 3.3393 -5.2503 1.9768 0
M  V30 49 C 0.6559 -0.8596 -5.5915 0
M  V30 50 C 0.5865 0.2387 -6.0940 0
M  V30 51 C 0.5515 1.5387 -6.6335 0
M  V30 52 C 1.0033 1.7949 -7.9163 0
M  V30 53 C 1.0251 3.0983 -8.4262 0
M  V30 54 C 0.6183 4.1625 -7.6630 0
M  V30 55 C 0.1416 3.9427 -6.3531 0
M  V30 56 C -0.2513 4.9947 -5.5039 0
M  V30 57 N -0.7019 4.7917 -4.2837 0
M  V30 58 C -0.8431 3.5269 -3.8133 0
M  V30 59 C -0.4623 2.4386 -4.5450 0
M  V30 60 C 0.0776 2.6179 -5.8347 0
M  V30 61 H 1.3522 0.9771 -8.5283 0
M  V30 62 H 1.3819 3.2593 -9.4317 0
M  V30 63 H 0.6571 5.1671 -8.0529 0
M  V30 64 H -0.1829 6.0259 -5.8422 0
M  V30 65 H -1.2809 3.4395 -2.8214 0
M  V30 66 H -0.5654 1.4398 -4.1523 0
M  V30 67 C 0.7272 -2.1260 -4.9797 0
M  V30 68 C 0.7520 -3.2908 -5.7549 0
M  V30 69 C 0.7987 -4.5256 -5.1461 0
M  V30 70 C 0.8274 -4.6230 -3.7493 0
M  V30 71 C 0.8241 -3.4565 -2.9759 0
M  V30 72 C 0.7708 -2.2227 -3.5836 0
M  V30 73 H 0.7249 -3.2165 -6.8318 0
M  V30 74 H 0.8078 -5.4255 -5.7430 0
M  V30 75 H 0.8598 -3.5337 -1.9012 0
M  V30 76 H 0.7645 -1.3211 -2.9917 0
M  V30 77 C 0.8241 -5.8926 -3.1414 0
M  V30 78 C 0.7776 -6.9878 -2.6278 0
M  V30 79 C 0.6519 -8.2892 -2.1100 0
M  V30 80 C 0.5838 -9.3670 -2.9762 0
M  V30 81 C 0.3914 -10.6666 -2.4981 0
M  V30 82 C 0.2450 -10.9111 -1.1549 0
M  V30 83 C 0.3134 -9.8484 -0.2364 0
M  V30 84 C 0.1525 -10.0280 1.1563 0
M  V30 85 C 0.2452 -8.9558 1.9948 0
M  V30 86 N 0.5173 -7.7079 1.5397 0
M  V30 87 C 0.6534 -7.4959 0.2456 0
M  V30 88 C 0.5428 -8.5219 -0.7055 0
M  V30 89 H 0.6721 -9.1978 -4.0385 0
M  V30 90 H 0.3451 -11.4823 -3.2032 0
M  V30 91 H 0.0757 -11.9124 -0.7911 0
M  V30 92 H -0.0462 -11.0148 1.5428 0
M  V30 93 H 0.1041 -9.0554 3.0695 0
M  V30 94 H 0.8675 -6.4783 -0.0744 0
M  V30 95 C -5.2231 -1.4400 1.7528 0
M  V30 96 C -5.0912 -2.5069 2.3078 0
M  V30 97 C -4.8866 -3.7215 2.9896 0
M  V30 98 C -5.8461 -4.2336 3.8453 0
M  V30 99 C -5.6133 -5.4089 4.5691 0
M  V30 100 C -4.4201 -6.0770 4.4673 0
M  V30 101 C -3.4190 -5.5928 3.5981 0
M  V30 102 C -2.1581 -6.2077 3.4785 0
M  V30 103 N -1.2250 -5.7615 2.6641 0
M  V30 104 C -1.4743 -4.6931 1.8658 0
M  V30 105 C -2.6532 -4.0069 1.9265 0
M  V30 106 C -3.6565 -4.4198 2.8265 0
M  V30 107 H -6.7843 -3.7128 3.9620 0
M  V30 108 H -6.3859 -5.7796 5.2250 0
M  V30 109 H -4.2374 -6.9701 5.0430 0
M  V30 110 H -1.9171 -7.0832 4.0769 0
M  V30 111 H -0.6772 -4.4248 1.1760 0
M  V30 112 H -2.8317 -3.1498 1.2972 0
M  V30 113 C -5.3479 -0.2003 1.0964 0
M  V30 114 C -4.1993 0.4975 0.7036 0
M  V30 115 C -4.3113 1.7019 0.0465 0
M  V30 116 C -5.5740 2.2332 -0.2401 0
M  V30 117 C -6.7225 1.5421 0.1663 0
M  V30 118 C -6.6108 0.3401 0.8296 0
M  V30 119 H -3.2286 0.0824 0.9235 0
M  V30 120 H -3.4287 2.2421 -0.2552 0
M  V30 121 H -7.6966 1.9553 -0.0488 0
M  V30 122 H -7.4968 -0.1947 1.1383 0
M  V30 123 C -5.7053 3.4349 -0.9611 0
M  V30 124 C -5.8290 4.4444 -1.6175 0
M  V30 125 C -6.0566 5.5679 -2.4321 0
M  V30 126 C -7.3547 5.9575 -2.7142 0
M  V30 127 C -7.6165 7.0281 -3.5742 0
M  V30 128 C -6.5932 7.7141 -4.1807 0
M  V30 129 C -5.2580 7.3585 -3.9194 0
M  V30 130 C -4.1593 8.0104 -4.5241 0
M  V30 131 C -2.8872 7.6256 -4.2154 0
M  V30 132 N -2.6306 6.6441 -3.3159 0
M  V30 133 C -3.6287 5.9983 -2.7460 0
M  V30 134 C -4.9740 6.2909 -3.0185 0
M  V30 135 H -8.1769 5.4188 -2.2686 0
M  V30 136 H -8.6414 7.3044 -3.7696 0
M  V30 137 H -6.7994 8.5261 -4.8602 0
M  V30 138 H -4.3390 8.8065 -5.2288 0
M  V30 139 H -2.0196 8.0911 -4.6798 0
M  V30 140 H -3.3758 5.2160 -2.0334 0
M  V30 141 C -0.4159 0.8793 5.5576 0
M  V30 142 C -0.3302 -0.2137 6.0692 0
M  V30 143 C -0.2818 -1.5073 6.6213 0
M  V30 144 C -0.6592 -1.7410 7.9325 0
M  V30 145 C -0.6669 -3.0370 8.4605 0
M  V30 146 C -0.3229 -4.1170 7.6884 0
M  V30 147 C 0.0724 -3.9212 6.3479 0
M  V30 148 C 0.3908 -4.9902 5.4887 0
M  V30 149 N 0.7604 -4.8096 4.2384 0
M  V30 150 C 0.8889 -3.5531 3.7420 0
M  V30 151 C 0.5771 -2.4498 4.4833 0
M  V30 152 C 0.1240 -2.6041 5.8092 0
M  V30 153 H -0.9576 -0.9103 8.5539 0
M  V30 154 H -0.9625 -3.1801 9.4885 0
M  V30 155 H -0.3510 -5.1158 8.0937 0
M  V30 156 H 0.3293 -6.0158 5.8440 0
M  V30 157 H 1.2538 -3.4876 2.7188 0
M  V30 158 H 0.6656 -1.4573 4.0718 0
M  V30 159 C -0.5232 2.1414 4.9432 0
M  V30 160 C -0.2388 2.2820 3.5794 0
M  V30 161 C -0.3500 3.5120 2.9718 0
M  V30 162 C -0.7442 4.6315 3.7139 0
M  V30 163 C -1.0297 4.4910 5.0775 0
M  V30 164 C -0.9220 3.2595 5.6850 0
M  V30 165 H 0.0718 1.4193 3.0117 0
M  V30 166 H -0.1216 3.6261 1.9244 0
M  V30 167 H -1.3329 5.3550 5.6499 0
M  V30 168 H -1.1406 3.1516 6.7368 0
M  V30 169 C -0.8252 5.8995 3.1079 0
M  V30 170 C -0.8664 6.9930 2.5906 0
M  V30 171 C -0.8405 8.2971 2.0648 0
M  V30 172 C -0.8600 9.3837 2.9221 0
M  V30 173 C -0.7597 10.6898 2.4336 0
M  V30 174 C -0.6196 10.9331 1.0894 0
M  V30 175 C -0.6054 9.8608 0.1797 0
M  V30 176 C -0.4485 10.0393 -1.2136 0
M  V30 177 C -0.4647 8.9564 -2.0435 0
M  V30 178 N -0.6587 7.6969 -1.5796 0
M  V30 179 C -0.7843 7.4868 -0.2841 0
M  V30 180 C -0.7431 8.5254 0.6590 0
M  V30 181 H -0.9418 9.2171 3.9852 0
M  V30 182 H -0.7786 11.5128 3.1317 0
M  V30 183 H -0.5190 11.9409 0.7184 0
M  V30 184 H -0.3144 11.0340 -1.6078 0
M  V30 185 H -0.3235 9.0568 -3.1181 0
M  V30 186 H -0.9344 6.4605 0.0438 0
M  V30 END ATOM
M  V30 BEGIN BOND
M  V30 1 3 3 4
M  V30 2 1 4 5
M  V30 3 2 5 6
M  V30 4 1 6 7
M  V30 5 2 7 8
M  V30 6 1 8 9
M  V30 7 2 9 10
M  V30 8 1 10 11
M  V30 9 2 11 12
M  V30 10 1 12 13
M  V30 11 2 13 14
M  V30 12 1 14 5
M  V30 13 1 14 9
M  V30 14 1 6 15
M  V30 15 1 7 16
M  V30 16 1 8 17
M  V30 17 1 10 18
M  V30 18 1 12 19
M  V30 19 1 13 20
M  V30 20 2 21 22
M  V30 21 1 22 23
M  V30 22 2 23 24
M  V30 23 1 24 25
M  V30 24 2 25 26
M  V30 25 1 26 21
M  V30 26 1 22 27
M  V30 27 1 23 28
M  V30 28 1 25 29
M  V30 29 1 26 30
M  V30 30 3 31 32
M  V30 31 1 32 33
M  V30 32 2 33 34
M  V30 33 1 34 35
M  V30 34 2 35 36
M  V30 35 1 36 37
M  V30 36 2 37 38
M  V30 37 1 38 39
M  V30 38 2 39 40
M  V30 39 1 40 41
M  V30 40 2 41 42
M  V30 41 1 42 33
M  V30 42 1 42 37
M  V30 43 1 34 43
M  V30 44 1 35 44
M  V30 45 1 36 45
M  V30 46 1 38 46
M  V30 47 1 39 47
M  V30 48 1 41 48
M  V30 49 1 3 21
M  V30 50 1 24 31
M  V30 51 3 49 50
M  V30 52 1 50 51
M  V30 53 2 51 52
M  V30 54 1 52 53
M  V30 55 2 53 54
M  V30 56 1 54 55
M  V30 57 2 55 56
M  V30 58 1 56 57
M  V30 59 2 57 58
M  V30 60 1 58 59
M  V30 61 2 59 60
M  V30 62 1 60 51
M  V30 63 1 60 55
M  V30 64 1 52 61
M  V30 65 1 53 62
M  V30 66 1 54 63
M  V30 67 1 56 64
M  V30 68 1 58 65
M  V30 69 1 59 66
M  V30 70 2 67 68
M  V30 71 1 68 69
M  V30 72 2 69 70
M  V30 73 1 70 71
M  V30 74 2 71 72
M  V30 75 1 72 67
M  V30 76 1 68 73
M  V30 77 1 69 74
M  V30 78 1 71 75
M  V30 79 1 72 76
M  V30 80 3 77 78
M  V30 81 1 78 79
M  V30 82 2 79 80
M  V30 83 1 80 81
M  V30 84 2 81 82
M  V30 85 1 82 83
M  V30 86 2 83 84
M  V30 87 1 84 85
M  V30 88 2 85 86
M  V30 89 1 86 87
M  V30 90 2 87 88
M  V30 91 1 88 79
M  V30 92 1 88 83
M  V30 93 1 80 89
M  V30 94 1 81 90
M  V30 95 1 82 91
M  V30 96 1 84 92
M  V30 97 1 85 93
M  V30 98 1 87 94
M  V30 99 1 49 67
M  V30 100 1 70 77
M  V30 101 3 95 96
M  V30 102 1 96 97
M  V30 103 2 97 98
M  V30 104 1 98 99
M  V30 105 2 99 100
M  V30 106 1 100 101
M  V30 107 2 101 102
M  V30 108 1 102 103
M  V30 109 2 103 104
M  V30 110 1 104 105
M  V30 111 2 105 106
M  V30 112 1 106 97
M  V30 113 1 106 101
M  V30 114 1 98 107
M  V30 115 1 99 108
M  V30 116 1 100 109
M  V30 117 1 102 110
M  V30 118 1 104 111
M  V30 119 1 105 112
M  V30 120 2 113 114
M  V30 121 1 114 115
M  V30 122 2 115 116
M  V30 123 1 116 117
M  V30 124 2 117 118
M  V30 125 1 118 113
M  V30 126 1 114 119
M  V30 127 1 115 120
M  V30 128 1 117 121
M  V30 129 1 118 122
M  V30 130 3 123 124
M  V30 131 1 124 125
M  V30 132 2 125 126
M  V30 133 1 126 127
M  V30 134 2 127 128
M  V30 135 1 128 129
M  V30 136 2 129 130
M  V30 137 1 130 131
M  V30 138 2 131 132
M  V30 139 1 132 133
M  V30 140 2 133 134
M  V30 141 1 134 125
M  V30 142 1 134 129
M  V30 143 1 126 135
M  V30 144 1 127 136
M  V30 145 1 128 137
M  V30 146 1 130 138
M  V30 147 1 131 139
M  V30 148 1 133 140
M  V30 149 1 95 113
M  V30 150 1 116 123
M  V30 151 3 141 142
M  V30 152 1 142 143
M  V30 153 2 143 144
M  V30 154 1 144 145
M  V30 155 2 145 146
M  V30 156 1 146 147
M  V30 157 2 147 148
M  V30 158 1 148 149
M  V30 159 2 149 150
M  V30 160 1 150 151
M  V30 161 2 151 152
M  V30 162 1 152 143
M  V30 163 1 152 147
M  V30 164 1 144 153
M  V30 165 1 145 154
M  V30 166 1 146 155
M  V30 167 1 148 156
M  V30 168 1 150 157
M  V30 169 1 151 158
M  V30 170 2 159 160
M  V30 171 1 160 161
M  V30 172 2 161 162
M  V30 173 1 162 163
M  V30 174 2 163 164
M  V30 175 1 164 159
M  V30 176 1 160 165
M  V30 177 1 161 166
M  V30 178 1 163 167
M  V30 179 1 164 168
M  V30 180 3 169 170
M  V30 181 1 170 171
M  V30 182 2 171 172
M  V30 183 1 172 173
M  V30 184 2 173 174
M  V30 185 1 174 175
M  V30 186 2 175 176
M  V30 187 1 176 177
M  V30 188 2 177 178
M  V30 189 1 178 179
M  V30 190 2 179 180
M  V30 191 1 180 171
M  V30 192 1 180 175
M  V30 193 1 172 181
M  V30 194 1 173 182
M  V30 195 1 174 183
M  V30 196 1 176 184
M  V30 197 1 177 185
M  V30 198 1 179 186
M  V30 199 1 141 159
M  V30 200 1 162 169
M  V30 201 9 40 1
M  V30 202 9 86 1
M  V30 203 9 103 1
M  V30 204 9 149 1
M  V30 205 9 11 2
M  V30 206 9 57 2
M  V30 207 9 132 2
M  V30 208 9 178 2
M  V30 END BOND
M  V30 END CTAB
M  END

$$$$
