
     RDKit          3D

  0  0  0  0  0  0  0  0  0  0999 V3000
M  V30 BEGIN CTAB
M  V30 COUNTS 186 208 0 0 0
M  V30 BEGIN ATOM
M  V30 1 Pd 1.8781 6.6928 0.6680 0 CHG=2
M  V30 2 Pd -1.4800 -6.7533 -0.1702 0 CHG=2
M  V30 3 C -5.4155 -0.2165 0.9402 0
M  V30 4 C -5.7181 -1.3828 0.8320 0
M  V30 5 C -6.0357 -2.7411 0.6455 0
M  V30 6 C -7.3407 -3.1480 0.4272 0
M  V30 7 C -7.6458 -4.4918 0.1828 0
M  V30 8 C -6.6586 -5.4423 0.1294 0
M  V30 9 C -5.3157 -5.0696 0.3509 0
M  V30 10 C -4.2509 -5.9868 0.2625 0
M  V30 11 N -2.9978 -5.6413 0.4692 0
M  V30 12 C -2.6935 -4.3673 0.8243 0
M  V30 13 C -3.6483 -3.3950 0.9095 0
M  V30 14 C -4.9950 -3.7128 0.6407 0
M  V30 15 H -8.1333 -2.4152 0.4402 0
M  V30 16 H -8.6753 -4.7725 0.0219 0
M  V30 17 H -6.8963 -6.4729 -0.0804 0
M  V30 18 H -4.4426 -7.0259 0.0067 0
M  V30 19 H -1.6427 -4.1764 1.0331 0
M  V30 20 H -3.3915 -2.3821 1.1744 0
M  V30 21 C -5.0443 1.1367 1.0544 0
M  V30 22 C -6.0193 2.1409 1.0647 0
M  V30 23 C -5.6502 3.4635 1.1723 0
M  V30 24 C -4.2973 3.8120 1.2688 0
M  V30 25 C -3.3227 2.8075 1.2534 0
M  V30 26 C -3.6916 1.4855 1.1497 0
M  V30 27 H -7.0627 1.8723 0.9922 0
M  V30 28 H -6.4019 4.2386 1.1849 0
M  V30 29 H -2.2828 3.0791 1.3375 0
M  V30 30 H -2.9432 0.7090 1.1451 0
M  V30 31 C -3.9300 5.1633 1.4111 0
M  V30 32 C -3.6124 6.3215 1.5623 0
M  V30 33 C -3.3071 7.6683 1.8282 0
M  V30 34 C -4.3138 8.5386 2.2089 0
M  V30 35 C -4.0302 9.8637 2.5524 0
M  V30 36 C -2.7412 10.3368 2.5407 0
M  V30 37 C -1.6869 9.4920 2.1502 0
M  V30 38 C -0.3366 9.9093 2.1310 0
M  V30 39 C 0.6361 9.0448 1.7211 0
M  V30 40 N 0.3505 7.7892 1.2959 0
M  V30 41 C -0.8940 7.3545 1.3223 0
M  V30 42 C -1.9641 8.1488 1.7625 0
M  V30 43 H -5.3319 8.1828 2.2524 0
M  V30 44 H -4.8407 10.5140 2.8443 0
M  V30 45 H -2.5233 11.3532 2.8289 0
M  V30 46 H -0.0880 10.9107 2.4443 0
M  V30 47 H 1.6874 9.3269 1.7163 0
M  V30 48 H -1.0766 6.3397 0.9757 0
M  V30 49 C -2.3035 -0.6443 -4.8101 0
M  V30 50 C -2.6441 -1.8041 -4.8610 0
M  V30 51 C -3.0695 -3.1462 -4.8591 0
M  V30 52 C -4.0038 -3.6033 -5.7721 0
M  V30 53 C -4.4705 -4.9222 -5.7271 0
M  V30 54 C -4.0311 -5.7948 -4.7649 0
M  V30 55 C -3.0714 -5.3707 -3.8211 0
M  V30 56 C -2.6105 -6.2033 -2.7836 0
M  V30 57 N -1.7110 -5.8119 -1.9056 0
M  V30 58 C -1.1580 -4.5768 -2.0041 0
M  V30 59 C -1.5574 -3.6815 -2.9547 0
M  V30 60 C -2.5590 -4.0433 -3.8784 0
M  V30 61 H -4.3838 -2.9286 -6.5241 0
M  V30 62 H -5.1974 -5.2436 -6.4570 0
M  V30 63 H -4.4097 -6.8035 -4.7214 0
M  V30 64 H -3.0022 -7.2121 -2.6762 0
M  V30 65 H -0.3773 -4.3514 -1.2811 0
M  V30 66 H -1.1206 -2.6974 -3.0114 0
M  V30 67 C -1.8911 0.6995 -4.7254 0
M  V30 68 C -1.9681 1.5397 -5.8418 0
M  V30 69 C -1.5407 2.8463 -5.7546 0
M  V30 70 C -1.0322 3.3434 -4.5480 0
M  V30 71 C -0.9757 2.5079 -3.4265 0
M  V30 72 C -1.3966 1.2003 -3.5150 0
M  V30 73 H -2.3554 1.1557 -6.7737 0
M  V30 74 H -1.5903 3.4928 -6.6181 0
M  V30 75 H -0.5964 2.8966 -2.4953 0
M  V30 76 H -1.3516 0.5518 -2.6545 0
M  V30 77 C -0.5528 4.6655 -4.4885 0
M  V30 78 C -0.1036 5.7892 -4.4589 0
M  V30 79 C 0.4601 7.0758 -4.5249 0
M  V30 80 C 0.4166 7.7821 -5.7148 0
M  V30 81 C 1.0258 9.0347 -5.8337 0
M  V30 82 C 1.7027 9.5946 -4.7784 0
M  V30 83 C 1.7682 8.9171 -3.5477 0
M  V30 84 C 2.4636 9.4277 -2.4282 0
M  V30 85 C 2.4757 8.7264 -1.2580 0
M  V30 86 N 1.8129 7.5521 -1.1161 0
M  V30 87 C 1.1699 7.0326 -2.1432 0
M  V30 88 C 1.1234 7.6542 -3.4005 0
M  V30 89 H -0.0890 7.3526 -6.5662 0
M  V30 90 H 0.9698 9.5567 -6.7766 0
M  V30 91 H 2.1895 10.5518 -4.8798 0
M  V30 92 H 2.9826 10.3691 -2.5123 0
M  V30 93 H 3.0200 9.0799 -0.3842 0
M  V30 94 H 0.6553 6.0872 -1.9844 0
M  V30 95 C 5.8587 0.1356 -0.1618 0
M  V30 96 C 6.1556 1.3017 -0.0354 0
M  V30 97 C 6.4626 2.6605 0.1677 0
M  V30 98 C 7.7511 3.0674 0.4662 0
M  V30 99 C 8.0402 4.4116 0.7291 0
M  V30 100 C 7.0519 5.3621 0.7183 0
M  V30 101 C 5.7261 4.9898 0.4089 0
M  V30 102 C 4.6592 5.9084 0.4213 0
M  V30 103 N 3.4230 5.5647 0.1272 0
M  V30 104 C 3.1426 4.2907 -0.2463 0
M  V30 105 C 4.0992 3.3164 -0.2611 0
M  V30 106 C 5.4242 3.6325 0.1017 0
M  V30 107 H 8.5426 2.3345 0.5053 0
M  V30 108 H 9.0573 4.6920 0.9557 0
M  V30 109 H 7.2758 6.3928 0.9424 0
M  V30 110 H 4.8350 6.9478 0.6881 0
M  V30 111 H 2.1111 4.1009 -0.5346 0
M  V30 112 H 3.8589 2.3044 -0.5449 0
M  V30 113 C 5.4837 -1.2136 -0.3109 0
M  V30 114 C 4.1572 -1.5966 -0.0779 0
M  V30 115 C 3.7773 -2.9101 -0.2373 0
M  V30 116 C 4.7126 -3.8699 -0.6408 0
M  V30 117 C 6.0426 -3.4890 -0.8592 0
M  V30 118 C 6.4247 -2.1760 -0.6934 0
M  V30 119 H 3.4393 -0.8529 0.2294 0
M  V30 120 H 2.7573 -3.2080 -0.0566 0
M  V30 121 H 6.7657 -4.2307 -1.1639 0
M  V30 122 H 7.4493 -1.8820 -0.8669 0
M  V30 123 C 4.3272 -5.2052 -0.8631 0
M  V30 124 C 3.9969 -6.3458 -1.0984 0
M  V30 125 C 3.6799 -7.6675 -1.4595 0
M  V30 126 C 4.6772 -8.5088 -1.9221 0
M  V30 127 C 4.3850 -9.8063 -2.3528 0
M  V30 128 C 3.0959 -10.2792 -2.3479 0
M  V30 129 C 2.0505 -9.4629 -1.8807 0
M  V30 130 C 0.7003 -9.8807 -1.8661 0
M  V30 131 C -0.2645 -9.0442 -1.3854 0
M  V30 132 N 0.0292 -7.8178 -0.8878 0
M  V30 133 C 1.2740 -7.3837 -0.9030 0
M  V30 134 C 2.3370 -8.1494 -1.4065 0
M  V30 135 H 5.6951 -8.1520 -1.9582 0
M  V30 136 H 5.1887 -10.4344 -2.7055 0
M  V30 137 H 2.8712 -11.2735 -2.7006 0
M  V30 138 H 0.4454 -10.8595 -2.2399 0
M  V30 139 H -1.3160 -9.3258 -1.3808 0
M  V30 140 H 1.4626 -6.3922 -0.4967 0
M  V30 141 C 2.4361 0.6363 5.4060 0
M  V30 142 C 2.7642 1.7991 5.4714 0
M  V30 143 C 3.1808 3.1433 5.4868 0
M  V30 144 C 4.0535 3.6115 6.4540 0
M  V30 145 C 4.5127 4.9333 6.4317 0
M  V30 146 C 4.1301 5.7979 5.4383 0
M  V30 147 C 3.2379 5.3612 4.4359 0
M  V30 148 C 2.8443 6.1829 3.3625 0
M  V30 149 N 2.0117 5.7777 2.4270 0
M  V30 150 C 1.4623 4.5387 2.4959 0
M  V30 151 C 1.7996 3.6543 3.4798 0
M  V30 152 C 2.7307 4.0310 4.4689 0
M  V30 153 H 4.3886 2.9437 7.2331 0
M  V30 154 H 5.1887 5.2641 7.2052 0
M  V30 155 H 4.5036 6.8092 5.4135 0
M  V30 156 H 3.2349 7.1936 3.2742 0
M  V30 157 H 0.7406 4.3012 1.7167 0
M  V30 158 H 1.3703 2.6659 3.5134 0
M  V30 159 C 2.0563 -0.7156 5.3074 0
M  V30 160 C 1.2671 -1.1439 4.2329 0
M  V30 161 C 0.8996 -2.4661 4.1271 0
M  V30 162 C 1.3089 -3.3908 5.0949 0
M  V30 163 C 2.0989 -2.9630 6.1689 0
M  V30 164 C 2.4698 -1.6407 6.2731 0
M  V30 165 H 0.9471 -0.4279 3.4927 0
M  V30 166 H 0.2833 -2.7974 3.3070 0
M  V30 167 H 2.4137 -3.6765 6.9158 0
M  V30 168 H 3.0777 -1.3106 7.1022 0
M  V30 169 C 0.9070 -4.7375 5.0131 0
M  V30 170 C 0.5364 -5.8883 4.9553 0
M  V30 171 C 0.0599 -7.2110 4.9876 0
M  V30 172 C 0.1779 -7.9553 6.1487 0
M  V30 173 C -0.3528 -9.2458 6.2354 0
M  V30 174 C -1.0241 -9.8067 5.1769 0
M  V30 175 C -1.1595 -9.0921 3.9734 0
M  V30 176 C -1.8513 -9.6032 2.8518 0
M  V30 177 C -1.9275 -8.8657 1.7064 0
M  V30 178 N -1.3301 -7.6539 1.5895 0
M  V30 179 C -0.6965 -7.1323 2.6214 0
M  V30 180 C -0.5924 -7.7895 3.8572 0
M  V30 181 H 0.6774 -7.5259 7.0036 0
M  V30 182 H -0.2417 -9.7968 7.1568 0
M  V30 183 H -1.4525 -10.7936 5.2554 0
M  V30 184 H -2.3160 -10.5742 2.9142 0
M  V30 185 H -2.4720 -9.2198 0.8330 0
M  V30 186 H -0.2354 -6.1567 2.4840 0
M  V30 END ATOM
M  V30 BEGIN BOND
M  V30 1 3 3 4
M  V30 2 1 4 5
M  V30 3 2 5 6
M  V30 4 1 6 7
M  V30 5 2 7 8
M  V30 6 1 8 9
M  V30 7 2 9 10
M  V30 8 1 10 11
M  V30 9 2 11 12
M  V30 10 1 12 13
M  V30 11 2 13 14
M  V30 12 1 14 5
M  V30 13 1 14 9
M  V30 14 1 6 15
M  V30 15 1 7 16
M  V30 16 1 8 17
M  V30 17 1 10 18
M  V30 18 1 12 19
M  V30 19 1 13 20
M  V30 20 2 21 22
M  V30 21 1 22 23
M  V30 22 2 23 24
M  V30 23 1 24 25
M  V30 24 2 25 26
M  V30 25 1 26 21
M  V30 26 1 22 27
M  V30 27 1 23 28
M  V30 28 1 25 29
M  V30 29 1 26 30
M  V30 30 3 31 32
M  V30 31 1 32 33
M  V30 32 2 33 34
M  V30 33 1 34 35
M  V30 34 2 35 36
M  V30 35 1 36 37
M  V30 36 2 37 38
M  V30 37 1 38 39
M  V30 38 2 39 40
M  V30 39 1 40 41
M  V30 40 2 41 42
M  V30 41 1 42 33
M  V30 42 1 42 37
M  V30 43 1 34 43
M  V30 44 1 35 44
M  V30 45 1 36 45
M  V30 46 1 38 46
M  V30 47 1 39 47
M  V30 48 1 41 48
M  V30 49 1 3 21
M  V30 50 1 24 31
M  V30 51 3 49 50
M  V30 52 1 50 51
M  V30 53 2 51 52
M  V30 54 1 52 53
M  V30 55 2 53 54
M  V30 56 1 54 55
M  V30 57 2 55 56
M  V30 58 1 56 57
M  V30 59 2 57 58
M  V30 60 1 58 59
M  V30 61 2 59 60
M  V30 62 1 60 51
M  V30 63 1 60 55
M  V30 64 1 52 61
M  V30 65 1 53 62
M  V30 66 1 54 63
M  V30 67 1 56 64
M  V30 68 1 58 65
M  V30 69 1 59 66
M  V30 70 2 67 68
M  V30 71 1 68 69
M  V30 72 2 69 70
M  V30 73 1 70 71
M  V30 74 2 71 72
M  V30 75 1 72 67
M  V30 76 1 68 73
M  V30 77 1 69 74
M  V30 78 1 71 75
M  V30 79 1 72 76
M  V30 80 3 77 78
M  V30 81 1 78 79
M  V30 82 2 79 80
M  V30 83 1 80 81
M  V30 84 2 81 82
M  V30 85 1 82 83
M  V30 86 2 83 84
M  V30 87 1 84 85
M  V30 88 2 85 86
M  V30 89 1 86 87
M  V30 90 2 87 88
M  V30 91 1 88 79
M  V30 92 1 88 83
M  V30 93 1 80 89
M  V30 94 1 81 90
M  V30 95 1 82 91
M  V30 96 1 84 92
M  V30 97 1 85 93
M  V30 98 1 87 94
M  V30 99 1 49 67
M  V30 100 1 70 77
M  V30 101 3 95 96
M  V30 102 1 96 97
M  V30 103 2 97 98
M  V30 104 1 98 99
M  V30 105 2 99 100
M  V30 106 1 100 101
M  V30 107 2 101 102
M  V30 108 1 102 103
M  V30 109 2 103 104
M  V30 110 1 104 105
M  V30 111 2 105 106
M  V30 112 1 106 97
M  V30 113 1 106 101
M  V30 114 1 98 107
M  V30 115 1 99 108
M  V30 116 1 100 109
M  V30 117 1 102 110
M  V30 118 1 104 111
M  V30 119 1 105 112
M  V30 120 2 113 114
M  V30 121 1 114 115
M  V30 122 2 115 116
M  V30 123 1 116 117
M  V30 124 2 117 118
M  V30 125 1 118 113
M  V30 126 1 114 119
M  V30 127 1 115 120
M  V30 128 1 117 121
M  V30 129 1 118 122
M  V30 130 3 123 124
M  V30 131 1 124 125
M  V30 132 2 125 126
M  V30 133 1 126 127
M  V30 134 2 127 128
M  V30 135 1 128 129
M  V30 136 2 129 130
M  V30 137 1 130 131
M  V30 138 2 131 132
M  V30 139 1 132 133
M  V30 140 2 133 134
M  V30 141 1 134 125
M  V30 142 1 134 129
M  V30 143 1 126 135
M  V30 144 1 127 136
M  V30 145 1 128 137
M  V30 146 1 130 138
M  V30 147 1 131 139
M  V30 148 1 133 140
M  V30 149 1 95 113
M  V30 150 1 116 123
M  V30 151 3 141 142
M  V30 152 1 142 143
M  V30 153 2 143 144
M  V30 154 1 144 145
M  V30 155 2 145 146
M  V30 156 1 146 147
M  V30 157 2 147 148
M  V30 158 1 148 149
M  V30 159 2 149 150
M  V30 160 1 150 151
M  V30 161 2 151 152
M  V30 162 1 152 143
M  V30 163 1 152 147
M  V30 164 1 144 153
M  V30 165 1 145 154
M  V30 166 1 146 155
M  V30 167 1 148 156
M  V30 168 1 150 157
M  V30 169 1 151 158
M  V30 170 2 159 160
M  V30 171 1 160 161
M  V30 172 2 161 162
M  V30 173 1 162 163
M  V30 174 2 163 164
M  V30 175 1 164 159
M  V30 176 1 160 165
M  V30 177 1 161 166
M  V30 178 1 163 167
M  V30 179 1 164 168
M  V30 180 3 169 170
M  V30 181 1 170 171
M  V30 182 2 171 172
M  V30 183 1 172 173
M  V30 184 2 173 174
M  V30 185 1 174 175
M  V30 186 2 175 176
M  V30 187 1 176 177
M  V30 188 2 177 178
M  V30 189 1 178 179
M  V30 190 2 179 180
M  V30 191 1 180 171
M  V30 192 1 180 175
M  V30 193 1 172 181
M  V30 194 1 173 182
M  V30 195 1 174 183
M  V30 196 1 176 184
M  V30 197 1 177 185
M  V30 198 1 179 186
M  V30 199 1 141 159
M  V30 200 1 162 169
M  V30 201 9 40 1
M  V30 202 9 86 1
M  V30 203 9 103 1
M  V30 204 9 149 1
M  V30 205 9 11 2
M  V30 206 9 57 2
M  V30 207 9 132 2
M  V30 208 9 178 2
M  V30 END BOND
M  V30 END CTAB
M  END

$$$$
