
     RDKit          3D

  0  0  0  0  0  0  0  0  0  0999 V3000
M  V30 BEGIN CTAB
M  V30 COUNTS 168 180 0 0 0
M  V30 BEGIN ATOM
M  V30 1 C -1.1879 -3.3229 -1.7080 0
M  V30 2 C -0.2098 -3.7224 -2.7099 0
M  V30 3 C -2.2131 -2.4472 -2.0447 0
M  V30 4 C -3.1784 -2.0873 -1.1043 0
M  V30 5 H -2.2930 -2.0390 -3.0405 0
M  V30 6 C -3.1022 -2.6058 0.1828 0
M  V30 7 C -2.0789 -3.4859 0.5354 0
M  V30 8 H -3.8375 -2.3514 0.9308 0
M  V30 9 C -1.1243 -3.8353 -0.4121 0
M  V30 10 C -2.0248 -4.0591 1.8728 0
M  V30 11 H -0.3242 -4.5188 -0.1717 0
M  V30 12 C -4.2743 -1.2016 -1.4716 0
M  V30 13 H -1.1089 -4.6197 2.1164 0
M  V30 14 H -0.2380 -3.1611 -3.6567 0
M  V30 15 H -4.9025 -0.8473 -0.6396 0
M  V30 16 C 3.6641 -1.6439 -1.2992 0
M  V30 17 C 3.4181 -3.0529 -1.5715 0
M  V30 18 C 4.1783 -1.2517 -0.0690 0
M  V30 19 C 4.4553 0.0906 0.1907 0
M  V30 20 H 4.3871 -1.9751 0.7041 0
M  V30 21 C 4.2025 1.0407 -0.7914 0
M  V30 22 C 3.6865 0.6621 -2.0309 0
M  V30 23 H 4.4121 2.0859 -0.6231 0
M  V30 24 C 3.4156 -0.6789 -2.2754 0
M  V30 25 C 3.4607 1.6552 -3.0716 0
M  V30 26 H 3.0221 -1.0038 -3.2264 0
M  V30 27 C 5.0320 0.4927 1.4658 0
M  V30 28 H 2.9113 1.3027 -3.9584 0
M  V30 29 H 3.4933 -3.7274 -0.7045 0
M  V30 30 H 5.0764 1.5773 1.6503 0
M  V30 31 C -0.8345 -0.4679 4.5194 0
M  V30 32 C -1.9824 -1.3567 4.6302 0
M  V30 33 C -1.0225 0.9076 4.4538 0
M  V30 34 C 0.0699 1.7723 4.3870 0
M  V30 35 H -2.0129 1.3360 4.4674 0
M  V30 36 C 1.3559 1.2456 4.3762 0
M  V30 37 C 1.5603 -0.1327 4.4415 0
M  V30 38 H 2.2215 1.8887 4.3317 0
M  V30 39 C 0.4622 -0.9821 4.5077 0
M  V30 40 C 2.9097 -0.6791 4.4706 0
M  V30 41 H 0.5880 -2.0524 4.5657 0
M  V30 42 C -0.1300 3.2144 4.3595 0
M  V30 43 H 2.9857 -1.7726 4.3670 0
M  V30 44 H -2.9668 -0.8873 4.4783 0
M  V30 45 H 0.7671 3.8182 4.1520 0
M  V30 46 C -2.2027 2.8921 -1.9857 0
M  V30 47 C -3.0296 2.1505 -2.9271 0
M  V30 48 C -0.9306 3.3115 -2.3562 0
M  V30 49 C -0.1434 4.0563 -1.4780 0
M  V30 50 H -0.5309 3.0837 -3.3325 0
M  V30 51 C -0.6385 4.3694 -0.2178 0
M  V30 52 C -1.9134 3.9551 0.1683 0
M  V30 53 H -0.0563 4.9494 0.4817 0
M  V30 54 C -2.6864 3.2138 -0.7174 0
M  V30 55 C -2.4447 4.3194 1.4742 0
M  V30 56 H -3.6789 2.8845 -0.4505 0
M  V30 57 C 1.1725 4.5288 -1.8846 0
M  V30 58 H -3.3871 3.8277 1.7616 0
M  V30 59 H -2.5215 1.8059 -3.8412 0
M  V30 60 H 1.7891 4.9726 -1.0877 0
M  V30 61 C 1.5282 -5.0480 -3.5274 0
M  V30 62 C 2.9520 -4.8669 -2.9631 0
M  V30 63 N 0.5963 -4.6711 -2.5118 0
M  V30 64 N 3.1656 -3.4729 -2.7328 0
M  V30 65 C 3.9818 -5.3616 -3.9824 0
M  V30 66 H 3.0301 -5.4560 -2.0313 0
M  V30 67 C 3.7380 -6.8222 -4.3415 0
M  V30 68 H 4.9817 -5.2331 -3.5625 0
M  V30 69 H 3.9104 -4.7368 -4.8744 0
M  V30 70 C 2.3295 -7.0034 -4.8969 0
M  V30 71 H 3.8585 -7.4410 -3.4492 0
M  V30 72 H 4.4762 -7.1467 -5.0776 0
M  V30 73 C 1.2957 -6.5176 -3.8885 0
M  V30 74 H 2.1499 -8.0554 -5.1278 0
M  V30 75 H 2.2291 -6.4340 -5.8239 0
M  V30 76 H 1.3538 -7.1098 -2.9737 0
M  V30 77 H 0.2872 -6.6248 -4.2936 0
M  V30 78 H 1.4333 -4.4176 -4.4300 0
M  V30 79 C -2.8997 -4.5375 3.9827 0
M  V30 80 C -3.0073 -3.4137 5.0333 0
M  V30 81 N -2.9810 -3.9430 2.6859 0
M  V30 82 N -1.8541 -2.5787 4.9118 0
M  V30 83 C -3.0321 -4.0180 6.4399 0
M  V30 84 H -3.9427 -2.8560 4.8455 0
M  V30 85 C -4.1891 -4.9974 6.5941 0
M  V30 86 H -3.1168 -3.2089 7.1686 0
M  V30 87 H -2.0819 -4.5262 6.6127 0
M  V30 88 C -4.0857 -6.1079 5.5541 0
M  V30 89 H -5.1350 -4.4663 6.4649 0
M  V30 90 H -4.1774 -5.4231 7.5996 0
M  V30 91 C -4.0640 -5.5177 4.1495 0
M  V30 92 H -4.9310 -6.7922 5.6509 0
M  V30 93 H -3.1698 -6.6789 5.7229 0
M  V30 94 H -4.9945 -4.9832 3.9505 0
M  V30 95 H -3.9664 -6.3096 3.4038 0
M  V30 96 H -1.9393 -5.0620 4.1374 0
M  V30 97 C -5.6004 -0.0320 -2.9948 0
M  V30 98 C -5.0387 1.2314 -3.6775 0
M  V30 99 N -4.5026 -0.8875 -2.6707 0
M  V30 100 N -4.2556 1.9448 -2.7185 0
M  V30 101 C -6.1906 2.1285 -4.1387 0
M  V30 102 H -4.4366 0.9131 -4.5478 0
M  V30 103 C -7.1180 1.3823 -5.0899 0
M  V30 104 H -5.7741 3.0125 -4.6263 0
M  V30 105 H -6.7419 2.4607 -3.2573 0
M  V30 106 C -7.6722 0.1310 -4.4171 0
M  V30 107 H -6.5648 1.0968 -5.9877 0
M  V30 108 H -7.9361 2.0384 -5.3938 0
M  V30 109 C -6.5338 -0.7713 -3.9573 0
M  V30 110 H -8.3147 -0.4145 -5.1111 0
M  V30 111 H -8.2776 0.4207 -3.5552 0
M  V30 112 H -5.9479 -1.1063 -4.8151 0
M  V30 113 H -6.9278 -1.6571 -3.4542 0
M  V30 114 H -6.1585 0.2828 -2.0943 0
M  V30 115 C 6.0554 0.0821 3.5226 0
M  V30 116 C 5.2290 -0.5194 4.6772 0
M  V30 117 N 5.4774 -0.3509 2.2897 0
M  V30 118 N 3.9212 0.0551 4.6339 0
M  V30 119 C 5.8777 -0.1679 6.0187 0
M  V30 120 H 5.2027 -1.6164 4.5463 0
M  V30 121 C 7.3148 -0.6708 6.0799 0
M  V30 122 H 5.2842 -0.6087 6.8225 0
M  V30 123 H 5.8521 0.9165 6.1394 0
M  V30 124 C 8.1327 -0.0791 4.9370 0
M  V30 125 H 7.3221 -1.7607 6.0048 0
M  V30 126 H 7.7582 -0.3971 7.0394 0
M  V30 127 C 7.4978 -0.4265 3.5961 0
M  V30 128 H 9.1543 -0.4629 4.9690 0
M  V30 129 H 8.1779 1.0069 5.0477 0
M  V30 130 H 7.4888 -1.5083 3.4520 0
M  V30 131 H 8.0688 0.0161 2.7771 0
M  V30 132 H 6.0375 1.1825 3.6235 0
M  V30 133 C 3.6708 3.7764 -4.0220 0
M  V30 134 C 2.8540 4.9513 -3.4467 0
M  V30 135 N 3.8945 2.8344 -2.9711 0
M  V30 136 N 1.5638 4.4584 -3.0807 0
M  V30 137 C 2.6828 6.0365 -4.5133 0
M  V30 138 H 3.4024 5.3588 -2.5781 0
M  V30 139 C 4.0347 6.5287 -5.0151 0
M  V30 140 H 2.1102 6.8624 -4.0856 0
M  V30 141 H 2.1032 5.6191 -5.3385 0
M  V30 142 C 4.8446 5.3675 -5.5816 0
M  V30 143 H 4.5847 6.9858 -4.1893 0
M  V30 144 H 3.8853 7.2913 -5.7821 0
M  V30 145 C 5.0247 4.2829 -4.5268 0
M  V30 146 H 5.8226 5.7199 -5.9155 0
M  V30 147 H 4.3242 4.9504 -6.4469 0
M  V30 148 H 5.5848 4.6738 -3.6754 0
M  V30 149 H 5.5845 3.4397 -4.9374 0
M  V30 150 H 3.0974 3.3352 -4.8573 0
M  V30 151 C -1.4093 5.1545 4.5733 0
M  V30 152 C -2.4350 5.5137 3.4793 0
M  V30 153 N -1.2552 3.7340 4.5886 0
M  V30 154 N -1.8731 5.1664 2.2121 0
M  V30 155 C -2.7112 7.0196 3.5002 0
M  V30 156 H -3.3667 4.9561 3.6849 0
M  V30 157 C -3.2187 7.4637 4.8665 0
M  V30 158 H -3.4448 7.2532 2.7257 0
M  V30 159 H -1.7855 7.5424 3.2534 0
M  V30 160 C -2.2068 7.1066 5.9499 0
M  V30 161 H -4.1688 6.9684 5.0802 0
M  V30 162 H -3.3959 8.5411 4.8591 0
M  V30 163 C -1.9274 5.6088 5.9406 0
M  V30 164 H -2.5863 7.4025 6.9299 0
M  V30 165 H -1.2767 7.6512 5.7710 0
M  V30 166 H -2.8398 5.0533 6.1645 0
M  V30 167 H -1.1851 5.3540 6.7001 0
M  V30 168 H -0.4608 5.6706 4.3383 0
M  V30 END ATOM
M  V30 BEGIN BOND
M  V30 1 1 139 143
M  V30 2 1 160 165
M  V30 3 1 124 129
M  V30 4 1 139 144
M  V30 5 1 160 164
M  V30 6 1 124 128
M  V30 7 1 142 146
M  V30 8 1 157 162
M  V30 9 1 121 126
M  V30 10 1 139 142
M  V30 11 1 137 139
M  V30 12 1 157 160
M  V30 13 1 160 163
M  V30 14 1 121 124
M  V30 15 1 124 127
M  V30 16 1 145 148
M  V30 17 1 155 159
M  V30 18 1 119 123
M  V30 19 1 137 140
M  V30 20 1 134 138
M  V30 21 1 142 145
M  V30 22 1 142 147
M  V30 23 1 151 168
M  V30 24 1 127 131
M  V30 25 1 163 167
M  V30 26 1 115 132
M  V30 27 1 155 157
M  V30 28 1 157 161
M  V30 29 1 119 121
M  V30 30 1 121 125
M  V30 31 1 134 137
M  V30 32 1 137 141
M  V30 33 1 145 149
M  V30 34 1 133 145
M  V30 35 1 151 163
M  V30 36 1 163 166
M  V30 37 1 115 127
M  V30 38 1 127 130
M  V30 39 1 155 158
M  V30 40 1 152 155
M  V30 41 1 119 122
M  V30 42 1 116 119
M  V30 43 1 57 60
M  V30 44 1 27 30
M  V30 45 1 42 45
M  V30 46 1 133 134
M  V30 47 1 134 136
M  V30 48 1 151 152
M  V30 49 1 151 153
M  V30 50 1 115 116
M  V30 51 1 115 117
M  V30 52 1 51 53
M  V30 53 1 21 23
M  V30 54 1 36 38
M  V30 55 1 133 135
M  V30 56 1 133 150
M  V30 57 1 152 154
M  V30 58 1 152 156
M  V30 59 1 116 118
M  V30 60 1 116 120
M  V30 61 2 57 136
M  V30 62 1 49 57
M  V30 63 2 27 117
M  V30 64 1 19 27
M  V30 65 2 42 153
M  V30 66 1 34 42
M  V30 67 2 25 135
M  V30 68 2 55 154
M  V30 69 2 40 118
M  V30 70 2 49 51
M  V30 71 1 51 52
M  V30 72 2 19 21
M  V30 73 1 21 22
M  V30 74 2 34 36
M  V30 75 1 36 37
M  V30 76 1 48 49
M  V30 77 1 18 19
M  V30 78 1 33 34
M  V30 79 1 22 25
M  V30 80 1 25 28
M  V30 81 1 52 55
M  V30 82 1 55 58
M  V30 83 1 37 40
M  V30 84 1 40 43
M  V30 85 2 22 24
M  V30 86 2 52 54
M  V30 87 2 37 39
M  V30 88 1 48 50
M  V30 89 2 46 48
M  V30 90 1 18 20
M  V30 91 2 16 18
M  V30 92 1 33 35
M  V30 93 2 31 33
M  V30 94 1 46 54
M  V30 95 1 54 56
M  V30 96 1 16 24
M  V30 97 1 24 26
M  V30 98 1 31 39
M  V30 99 1 39 41
M  V30 100 1 46 47
M  V30 101 1 16 17
M  V30 102 1 31 32
M  V30 103 1 47 59
M  V30 104 2 47 100
M  V30 105 1 17 29
M  V30 106 2 17 64
M  V30 107 1 32 44
M  V30 108 2 32 82
M  V30 109 1 98 100
M  V30 110 1 62 64
M  V30 111 1 80 82
M  V30 112 1 101 104
M  V30 113 1 65 68
M  V30 114 1 83 86
M  V30 115 1 101 105
M  V30 116 1 65 69
M  V30 117 1 83 87
M  V30 118 1 98 101
M  V30 119 1 98 102
M  V30 120 1 97 98
M  V30 121 1 62 65
M  V30 122 1 62 66
M  V30 123 1 61 62
M  V30 124 1 80 83
M  V30 125 1 80 84
M  V30 126 1 79 80
M  V30 127 1 101 103
M  V30 128 1 65 67
M  V30 129 1 83 85
M  V30 130 1 2 14
M  V30 131 1 12 15
M  V30 132 1 10 13
M  V30 133 1 3 5
M  V30 134 1 3 4
M  V30 135 2 1 3
M  V30 136 2 4 6
M  V30 137 1 4 12
M  V30 138 1 1 9
M  V30 139 1 1 2
M  V30 140 1 6 7
M  V30 141 1 6 8
M  V30 142 2 7 9
M  V30 143 1 9 11
M  V30 144 1 7 10
M  V30 145 2 12 99
M  V30 146 2 2 63
M  V30 147 2 10 81
M  V30 148 1 97 114
M  V30 149 1 61 78
M  V30 150 1 79 96
M  V30 151 1 97 99
M  V30 152 1 61 63
M  V30 153 1 79 81
M  V30 154 1 97 109
M  V30 155 1 61 73
M  V30 156 1 79 91
M  V30 157 1 103 108
M  V30 158 1 103 107
M  V30 159 1 103 106
M  V30 160 1 67 72
M  V30 161 1 67 71
M  V30 162 1 67 70
M  V30 163 1 85 90
M  V30 164 1 85 89
M  V30 165 1 85 88
M  V30 166 1 106 111
M  V30 167 1 70 75
M  V30 168 1 106 109
M  V30 169 1 109 112
M  V30 170 1 109 113
M  V30 171 1 70 73
M  V30 172 1 73 76
M  V30 173 1 73 77
M  V30 174 1 88 93
M  V30 175 1 88 91
M  V30 176 1 91 94
M  V30 177 1 91 95
M  V30 178 1 106 110
M  V30 179 1 70 74
M  V30 180 1 88 92
M  V30 END BOND
M  V30 END CTAB
M  END

$$$$
