
     RDKit          3D

  0  0  0  0  0  0  0  0  0  0999 V3000
M  V30 BEGIN CTAB
M  V30 COUNTS 168 180 0 0 0
M  V30 BEGIN ATOM
M  V30 1 C -2.1356 -0.9248 3.6102 0
M  V30 2 C -3.5122 -1.3499 3.4001 0
M  V30 3 C -1.8459 0.4163 3.8311 0
M  V30 4 C -0.5360 0.8305 4.0721 0
M  V30 5 H -2.6263 1.1619 3.8351 0
M  V30 6 C 0.4858 -0.1114 4.0800 0
M  V30 7 C 0.2104 -1.4611 3.8600 0
M  V30 8 H 1.5084 0.1770 4.2698 0
M  V30 9 C -1.0996 -1.8589 3.6212 0
M  V30 10 C 1.2771 -2.4509 3.9092 0
M  V30 11 H -1.3455 -2.8964 3.4538 0
M  V30 12 C -0.2414 2.2305 4.3433 0
M  V30 13 H 1.0047 -3.4647 3.5767 0
M  V30 14 H -4.2457 -0.5417 3.2545 0
M  V30 15 H 0.8263 2.4980 4.3716 0
M  V30 16 C -3.5812 -2.5597 -1.0551 0
M  V30 17 C -3.9528 -3.3364 0.1190 0
M  V30 18 C -2.6459 -3.0595 -1.9535 0
M  V30 19 C -2.3100 -2.3435 -3.1025 0
M  V30 20 H -2.1715 -4.0150 -1.7902 0
M  V30 21 C -2.9129 -1.1139 -3.3394 0
M  V30 22 C -3.8533 -0.5994 -2.4468 0
M  V30 23 H -2.6788 -0.5391 -4.2223 0
M  V30 24 C -4.1782 -1.3242 -1.3064 0
M  V30 25 C -4.5127 0.6700 -2.7188 0
M  V30 26 H -4.9066 -0.9558 -0.6003 0
M  V30 27 C -1.3602 -2.8890 -4.0618 0
M  V30 28 H -5.1216 1.0787 -1.8975 0
M  V30 29 H -3.3293 -4.2205 0.3242 0
M  V30 30 H -1.0339 -2.2006 -4.8567 0
M  V30 31 C 3.7133 -1.5769 0.0857 0
M  V30 32 C 4.1569 -1.6315 1.4714 0
M  V30 33 C 3.9665 -0.4467 -0.6825 0
M  V30 34 C 3.5817 -0.3967 -2.0223 0
M  V30 35 H 4.4769 0.4079 -0.2655 0
M  V30 36 C 2.9301 -1.4875 -2.5851 0
M  V30 37 C 2.6690 -2.6287 -1.8265 0
M  V30 38 H 2.6256 -1.4819 -3.6205 0
M  V30 39 C 3.0584 -2.6642 -0.4928 0
M  V30 40 C 2.0222 -3.7853 -2.4301 0
M  V30 41 H 2.8763 -3.5351 0.1181 0
M  V30 42 C 3.8851 0.7729 -2.8349 0
M  V30 43 H 1.7144 -4.5797 -1.7327 0
M  V30 44 H 4.5248 -0.6833 1.8933 0
M  V30 45 H 3.4159 0.7988 -3.8307 0
M  V30 46 C -0.9035 4.2656 0.2525 0
M  V30 47 C -1.5065 4.5677 1.5429 0
M  V30 48 C -1.7096 4.0161 -0.8517 0
M  V30 49 C -1.1450 3.7641 -2.1020 0
M  V30 50 H -2.7857 4.0258 -0.7698 0
M  V30 51 C 0.2383 3.7539 -2.2352 0
M  V30 52 C 1.0603 4.0024 -1.1359 0
M  V30 53 H 0.7051 3.5683 -3.1904 0
M  V30 54 C 0.4835 4.2521 0.1036 0
M  V30 55 C 2.5082 4.0309 -1.2875 0
M  V30 56 H 1.0924 4.4543 0.9714 0
M  V30 57 C -1.9931 3.5434 -3.2648 0
M  V30 58 H 3.0866 4.0791 -0.3517 0
M  V30 59 H -2.5937 4.4072 1.6118 0
M  V30 60 H -1.4776 3.2004 -4.1752 0
M  V30 61 C -5.2078 -2.9439 3.2251 0
M  V30 62 C -5.2901 -3.8305 1.9661 0
M  V30 63 N -3.8426 -2.5663 3.4144 0
M  V30 64 N -4.9443 -3.0297 0.8342 0
M  V30 65 C -6.7204 -4.3464 1.7864 0
M  V30 66 H -4.5961 -4.6805 2.0981 0
M  V30 67 C -7.1786 -5.1266 3.0124 0
M  V30 68 H -6.7572 -4.9778 0.8960 0
M  V30 69 H -7.3760 -3.4905 1.6171 0
M  V30 70 C -7.0951 -4.2521 4.2588 0
M  V30 71 H -6.5429 -6.0055 3.1427 0
M  V30 72 H -8.2037 -5.4723 2.8648 0
M  V30 73 C -5.6741 -3.7361 4.4496 0
M  V30 74 H -7.3987 -4.8230 5.1386 0
M  V30 75 H -7.7784 -3.4061 4.1548 0
M  V30 76 H -4.9871 -4.5702 4.6016 0
M  V30 77 H -5.6171 -3.0904 5.3286 0
M  V30 78 H -5.8617 -2.0665 3.0713 0
M  V30 79 C 3.4448 -3.1711 4.3870 0
M  V30 80 C 4.6112 -2.7219 3.4836 0
M  V30 81 N 2.4294 -2.1671 4.3341 0
M  V30 82 N 4.1466 -2.7048 2.1323 0
M  V30 83 C 5.7680 -3.7187 3.5945 0
M  V30 84 H 4.9409 -1.7221 3.8197 0
M  V30 85 C 6.2389 -3.8518 5.0375 0
M  V30 86 H 6.5863 -3.3801 2.9553 0
M  V30 87 H 5.4269 -4.6847 3.2182 0
M  V30 88 C 5.0860 -4.2933 5.9327 0
M  V30 89 H 6.6206 -2.8893 5.3858 0
M  V30 90 H 7.0542 -4.5761 5.0916 0
M  V30 91 C 3.9299 -3.3058 5.8330 0
M  V30 92 H 5.4212 -4.3615 6.9696 0
M  V30 93 H 4.7456 -5.2842 5.6236 0
M  V30 94 H 4.2436 -2.3209 6.1834 0
M  V30 95 H 3.0939 -3.6322 6.4552 0
M  V30 96 H 3.0805 -4.1472 4.0184 0
M  V30 97 C -0.8252 4.4340 4.8437 0
M  V30 98 C -1.4608 5.3182 3.7518 0
M  V30 99 N -1.1539 3.0725 4.5604 0
M  V30 100 N -0.8280 5.0127 2.5075 0
M  V30 101 C -1.2234 6.7955 4.0760 0
M  V30 102 H -2.5453 5.1068 3.7264 0
M  V30 103 C -1.7927 7.1539 5.4432 0
M  V30 104 H -1.6871 7.4052 3.2975 0
M  V30 105 H -0.1487 6.9843 4.0535 0
M  V30 106 C -1.1671 6.2785 6.5238 0
M  V30 107 H -2.8749 7.0047 5.4370 0
M  V30 108 H -1.5999 8.2074 5.6557 0
M  V30 109 C -1.4007 4.8053 6.2130 0
M  V30 110 H -1.5972 6.5202 7.4978 0
M  V30 111 H -0.0934 6.4742 6.5725 0
M  V30 112 H -2.4698 4.5858 6.2076 0
M  V30 113 H -0.9332 4.1757 6.9733 0
M  V30 114 H 0.2665 4.6062 4.8334 0
M  V30 115 C -0.0456 -4.5901 -4.9698 0
M  V30 116 C 1.2335 -5.0383 -4.2342 0
M  V30 117 N -0.9627 -4.0835 -3.9982 0
M  V30 118 N 1.8544 -3.8787 -3.6759 0
M  V30 119 C 2.2026 -5.6876 -5.2258 0
M  V30 120 H 0.9448 -5.7676 -3.4557 0
M  V30 121 C 1.5538 -6.8742 -5.9278 0
M  V30 122 H 3.0973 -6.0056 -4.6861 0
M  V30 123 H 2.5025 -4.9346 -5.9568 0
M  V30 124 C 0.2872 -6.4331 -6.6534 0
M  V30 125 H 1.3014 -7.6395 -5.1903 0
M  V30 126 H 2.2597 -7.3109 -6.6373 0
M  V30 127 C -0.6868 -5.7888 -5.6746 0
M  V30 128 H -0.1887 -7.2910 -7.1325 0
M  V30 129 H 0.5478 -5.7141 -7.4336 0
M  V30 130 H -0.9920 -6.5111 -4.9156 0
M  V30 131 H -1.5848 -5.4508 -6.1961 0
M  V30 132 H 0.2359 -3.8217 -5.7125 0
M  V30 133 C -5.0905 2.4809 -4.0730 0
M  V30 134 C -4.0318 3.5533 -4.4006 0
M  V30 135 N -4.4127 1.2455 -3.8357 0
M  V30 136 N -3.2342 3.7615 -3.2336 0
M  V30 137 C -4.7221 4.8700 -4.7672 0
M  V30 138 H -3.4293 3.1925 -5.2540 0
M  V30 139 C -5.6668 4.6824 -5.9478 0
M  V30 140 H -3.9578 5.6135 -5.0037 0
M  V30 141 H -5.2742 5.2233 -3.8945 0
M  V30 142 C -6.7126 3.6201 -5.6263 0
M  V30 143 H -5.0947 4.3741 -6.8260 0
M  V30 144 H -6.1549 5.6309 -6.1808 0
M  V30 145 C -6.0364 2.3037 -5.2639 0
M  V30 146 H -7.3708 3.4699 -6.4844 0
M  V30 147 H -7.3257 3.9571 -4.7872 0
M  V30 148 H -5.4571 1.9315 -6.1107 0
M  V30 149 H -6.7828 1.5479 -5.0104 0
M  V30 150 H -5.6583 2.8175 -3.1867 0
M  V30 151 C 4.9507 2.8045 -3.2634 0
M  V30 152 C 4.4823 4.0785 -2.5314 0
M  V30 153 N 4.6599 1.6809 -2.4300 0
M  V30 154 N 3.0584 4.0297 -2.4215 0
M  V30 155 C 4.8722 5.3170 -3.3428 0
M  V30 156 H 4.9725 4.1060 -1.5413 0
M  V30 157 C 6.3768 5.3657 -3.5778 0
M  V30 158 H 4.5404 6.2080 -2.8055 0
M  V30 159 H 4.3423 5.2842 -4.2963 0
M  V30 160 C 6.8419 4.1054 -4.2992 0
M  V30 161 H 6.8925 5.4454 -2.6179 0
M  V30 162 H 6.6270 6.2496 -4.1680 0
M  V30 163 C 6.4625 2.8660 -3.4980 0
M  V30 164 H 7.9241 4.1324 -4.4416 0
M  V30 165 H 6.3741 4.0583 -5.2852 0
M  V30 166 H 6.9609 2.8772 -2.5271 0
M  V30 167 H 6.7737 1.9610 -4.0241 0
M  V30 168 H 4.4203 2.7494 -4.2314 0
M  V30 END ATOM
M  V30 BEGIN BOND
M  V30 1 1 139 143
M  V30 2 1 160 165
M  V30 3 1 124 129
M  V30 4 1 139 144
M  V30 5 1 160 164
M  V30 6 1 124 128
M  V30 7 1 142 146
M  V30 8 1 157 162
M  V30 9 1 121 126
M  V30 10 1 139 142
M  V30 11 1 137 139
M  V30 12 1 157 160
M  V30 13 1 160 163
M  V30 14 1 121 124
M  V30 15 1 124 127
M  V30 16 1 145 148
M  V30 17 1 155 159
M  V30 18 1 119 123
M  V30 19 1 137 140
M  V30 20 1 134 138
M  V30 21 1 142 145
M  V30 22 1 142 147
M  V30 23 1 151 168
M  V30 24 1 127 131
M  V30 25 1 163 167
M  V30 26 1 115 132
M  V30 27 1 155 157
M  V30 28 1 157 161
M  V30 29 1 119 121
M  V30 30 1 121 125
M  V30 31 1 134 137
M  V30 32 1 137 141
M  V30 33 1 145 149
M  V30 34 1 133 145
M  V30 35 1 151 163
M  V30 36 1 163 166
M  V30 37 1 115 127
M  V30 38 1 127 130
M  V30 39 1 155 158
M  V30 40 1 152 155
M  V30 41 1 119 122
M  V30 42 1 116 119
M  V30 43 1 57 60
M  V30 44 1 27 30
M  V30 45 1 42 45
M  V30 46 1 133 134
M  V30 47 1 134 136
M  V30 48 1 151 152
M  V30 49 1 151 153
M  V30 50 1 115 116
M  V30 51 1 115 117
M  V30 52 1 51 53
M  V30 53 1 21 23
M  V30 54 1 36 38
M  V30 55 1 133 135
M  V30 56 1 133 150
M  V30 57 1 152 154
M  V30 58 1 152 156
M  V30 59 1 116 118
M  V30 60 1 116 120
M  V30 61 2 57 136
M  V30 62 1 49 57
M  V30 63 2 27 117
M  V30 64 1 19 27
M  V30 65 2 42 153
M  V30 66 1 34 42
M  V30 67 2 25 135
M  V30 68 2 55 154
M  V30 69 2 40 118
M  V30 70 2 49 51
M  V30 71 1 51 52
M  V30 72 2 19 21
M  V30 73 1 21 22
M  V30 74 2 34 36
M  V30 75 1 36 37
M  V30 76 1 48 49
M  V30 77 1 18 19
M  V30 78 1 33 34
M  V30 79 1 22 25
M  V30 80 1 25 28
M  V30 81 1 52 55
M  V30 82 1 55 58
M  V30 83 1 37 40
M  V30 84 1 40 43
M  V30 85 2 22 24
M  V30 86 2 52 54
M  V30 87 2 37 39
M  V30 88 1 48 50
M  V30 89 2 46 48
M  V30 90 1 18 20
M  V30 91 2 16 18
M  V30 92 1 33 35
M  V30 93 2 31 33
M  V30 94 1 46 54
M  V30 95 1 54 56
M  V30 96 1 16 24
M  V30 97 1 24 26
M  V30 98 1 31 39
M  V30 99 1 39 41
M  V30 100 1 46 47
M  V30 101 1 16 17
M  V30 102 1 31 32
M  V30 103 1 47 59
M  V30 104 2 47 100
M  V30 105 1 17 29
M  V30 106 2 17 64
M  V30 107 1 32 44
M  V30 108 2 32 82
M  V30 109 1 98 100
M  V30 110 1 62 64
M  V30 111 1 80 82
M  V30 112 1 101 104
M  V30 113 1 65 68
M  V30 114 1 83 86
M  V30 115 1 101 105
M  V30 116 1 65 69
M  V30 117 1 83 87
M  V30 118 1 98 101
M  V30 119 1 98 102
M  V30 120 1 97 98
M  V30 121 1 62 65
M  V30 122 1 62 66
M  V30 123 1 61 62
M  V30 124 1 80 83
M  V30 125 1 80 84
M  V30 126 1 79 80
M  V30 127 1 101 103
M  V30 128 1 65 67
M  V30 129 1 83 85
M  V30 130 1 2 14
M  V30 131 1 12 15
M  V30 132 1 10 13
M  V30 133 1 3 5
M  V30 134 1 3 4
M  V30 135 2 1 3
M  V30 136 2 4 6
M  V30 137 1 4 12
M  V30 138 1 1 9
M  V30 139 1 1 2
M  V30 140 1 6 7
M  V30 141 1 6 8
M  V30 142 2 7 9
M  V30 143 1 9 11
M  V30 144 1 7 10
M  V30 145 2 12 99
M  V30 146 2 2 63
M  V30 147 2 10 81
M  V30 148 1 97 114
M  V30 149 1 61 78
M  V30 150 1 79 96
M  V30 151 1 97 99
M  V30 152 1 61 63
M  V30 153 1 79 81
M  V30 154 1 97 109
M  V30 155 1 61 73
M  V30 156 1 79 91
M  V30 157 1 103 108
M  V30 158 1 103 107
M  V30 159 1 103 106
M  V30 160 1 67 72
M  V30 161 1 67 71
M  V30 162 1 67 70
M  V30 163 1 85 90
M  V30 164 1 85 89
M  V30 165 1 85 88
M  V30 166 1 106 111
M  V30 167 1 70 75
M  V30 168 1 106 109
M  V30 169 1 109 112
M  V30 170 1 109 113
M  V30 171 1 70 73
M  V30 172 1 73 76
M  V30 173 1 73 77
M  V30 174 1 88 93
M  V30 175 1 88 91
M  V30 176 1 91 94
M  V30 177 1 91 95
M  V30 178 1 106 110
M  V30 179 1 70 74
M  V30 180 1 88 92
M  V30 END BOND
M  V30 END CTAB
M  END

$$$$
