
     RDKit          3D

  0  0  0  0  0  0  0  0  0  0999 V3000
M  V30 BEGIN CTAB
M  V30 COUNTS 168 180 0 0 0
M  V30 BEGIN ATOM
M  V30 1 C -1.6509 2.0304 3.6468 0
M  V30 2 C -3.1020 1.9644 3.5455 0
M  V30 3 C -0.9706 3.1540 3.1928 0
M  V30 4 C 0.4154 3.2455 3.3197 0
M  V30 5 H -1.4986 3.9831 2.7471 0
M  V30 6 C 1.1175 2.1945 3.8976 0
M  V30 7 C 0.4483 1.0604 4.3578 0
M  V30 8 H 2.1894 2.2382 4.0156 0
M  V30 9 C -0.9329 0.9834 4.2247 0
M  V30 10 C 1.1819 -0.0214 4.9996 0
M  V30 11 H -1.4797 0.1220 4.5767 0
M  V30 12 C 1.1207 4.4411 2.8801 0
M  V30 13 H 0.6064 -0.9396 5.1951 0
M  V30 14 H -3.5761 2.7556 2.9442 0
M  V30 15 H 2.2197 4.3734 2.8740 0
M  V30 16 C -3.7948 -1.2591 0.3134 0
M  V30 17 C -4.3031 -1.1930 1.6762 0
M  V30 18 C -3.1027 -2.3845 -0.1180 0
M  V30 19 C -2.6447 -2.4773 -1.4322 0
M  V30 20 H -2.9176 -3.2140 0.5472 0
M  V30 21 C -2.8772 -1.4257 -2.3105 0
M  V30 22 C -3.5704 -0.2898 -1.8919 0
M  V30 23 H -2.5411 -1.4702 -3.3351 0
M  V30 24 C -4.0209 -0.2116 -0.5795 0
M  V30 25 C -3.8474 0.7925 -2.8257 0
M  V30 26 H -4.5656 0.6512 -0.2275 0
M  V30 27 C -1.9558 -3.6750 -1.8918 0
M  V30 28 H -4.2592 1.7128 -2.3833 0
M  V30 29 H -3.9523 -1.9849 2.3562 0
M  V30 30 H -1.4931 -3.6082 -2.8887 0
M  V30 31 C 3.5260 -1.9306 1.5098 0
M  V30 32 C 4.0192 -1.3979 2.7719 0
M  V30 33 C 4.0490 -1.4698 0.3075 0
M  V30 34 C 3.6135 -1.9996 -0.9071 0
M  V30 35 H 4.8107 -0.7055 0.2876 0
M  V30 36 C 2.6393 -2.9906 -0.9078 0
M  V30 37 C 2.1049 -3.4631 0.2910 0
M  V30 38 H 2.2863 -3.4249 -1.8305 0
M  V30 39 C 2.5487 -2.9259 1.4936 0
M  V30 40 C 1.1136 -4.5298 0.2886 0
M  V30 41 H 2.1592 -3.2751 2.4376 0
M  V30 42 C 4.1932 -1.5431 -2.1624 0
M  V30 43 H 0.6317 -4.7375 1.2565 0
M  V30 44 H 4.6724 -0.5148 2.6954 0
M  V30 45 H 3.6912 -1.8946 -3.0772 0
M  V30 46 C 0.8279 4.2138 -1.7218 0
M  V30 47 C 0.4197 5.2832 -0.8218 0
M  V30 48 C -0.0825 3.6777 -2.6245 0
M  V30 49 C 0.3061 2.6801 -3.5187 0
M  V30 50 H -1.1020 4.0295 -2.6634 0
M  V30 51 C 1.6155 2.2155 -3.4940 0
M  V30 52 C 2.5406 2.7439 -2.5934 0
M  V30 53 H 1.9483 1.4492 -4.1772 0
M  V30 54 C 2.1390 3.7375 -1.7084 0
M  V30 55 C 3.9219 2.2833 -2.5975 0
M  V30 56 H 2.8328 4.1707 -1.0044 0
M  V30 57 C -0.6397 2.1497 -4.4905 0
M  V30 58 H 4.5459 2.6340 -1.7608 0
M  V30 59 H -0.6607 5.4929 -0.7877 0
M  V30 60 H -0.3035 1.2640 -5.0516 0
M  V30 61 C -5.1953 1.0532 4.0291 0
M  V30 62 C -5.6096 -0.2841 3.3825 0
M  V30 63 N -3.7704 1.0731 4.1351 0
M  V30 64 N -5.1164 -0.3020 2.0415 0
M  V30 65 C -7.1363 -0.3936 3.3477 0
M  V30 66 H -5.1861 -1.1052 3.9892 0
M  V30 67 C -7.7250 -0.2796 4.7485 0
M  V30 68 H -7.4101 -1.3489 2.8948 0
M  V30 69 H -7.5237 0.4027 2.7097 0
M  V30 70 C -7.3139 1.0411 5.3903 0
M  V30 71 H -7.3657 -1.1087 5.3625 0
M  V30 72 H -8.8134 -0.3480 4.6952 0
M  V30 73 C -5.7953 1.1589 5.4338 0
M  V30 74 H -7.7155 1.1067 6.4035 0
M  V30 75 H -7.7267 1.8700 4.8107 0
M  V30 76 H -5.3726 0.3628 6.0490 0
M  V30 77 H -5.4988 2.1144 5.8717 0
M  V30 78 H -5.5739 1.8743 3.3938 0
M  V30 79 C 3.0715 -0.9757 5.9816 0
M  V30 80 C 4.2600 -1.3951 5.0928 0
M  V30 81 N 2.3908 0.1012 5.3346 0
M  V30 82 N 3.7380 -1.9351 3.8771 0
M  V30 83 C 5.0814 -2.4766 5.7999 0
M  V30 84 H 4.8864 -0.5026 4.9129 0
M  V30 85 C 5.5813 -1.9865 7.1532 0
M  V30 86 H 5.9216 -2.7544 5.1599 0
M  V30 87 H 4.4515 -3.3587 5.9271 0
M  V30 88 C 4.4075 -1.5687 8.0323 0
M  V30 89 H 6.2473 -1.1328 7.0075 0
M  V30 90 H 6.1525 -2.7787 7.6416 0
M  V30 91 C 3.5848 -0.4894 7.3396 0
M  V30 92 H 4.7717 -1.1933 8.9907 0
M  V30 93 H 3.7752 -2.4373 8.2299 0
M  V30 94 H 4.1925 0.4027 7.1781 0
M  V30 95 H 2.7301 -0.2052 7.9572 0
M  V30 96 H 2.4170 -1.8556 6.1183 0
M  V30 97 C 1.2352 6.6547 2.1498 0
M  V30 98 C 0.8181 7.0010 0.7062 0
M  V30 99 N 0.5078 5.4939 2.5565 0
M  V30 100 N 1.2566 5.9439 -0.1495 0
M  V30 101 C 1.4945 8.3027 0.2678 0
M  V30 102 H -0.2803 7.1207 0.6850 0
M  V30 103 C 1.1397 9.4474 1.2089 0
M  V30 104 H 1.1811 8.5355 -0.7521 0
M  V30 105 H 2.5741 8.1430 0.2582 0
M  V30 106 C 1.5491 9.1054 2.6375 0
M  V30 107 H 0.0626 9.6269 1.1732 0
M  V30 108 H 1.6433 10.3595 0.8825 0
M  V30 109 C 0.8783 7.8128 3.0856 0
M  V30 110 H 1.2689 9.9167 3.3123 0
M  V30 111 H 2.6341 8.9877 2.6854 0
M  V30 112 H -0.2066 7.9317 3.0872 0
M  V30 113 H 1.1884 7.5534 4.1002 0
M  V30 114 H 2.3269 6.4830 2.1607 0
M  V30 115 C -1.2516 -5.8910 -1.6929 0
M  V30 116 C -0.1153 -6.2433 -0.7116 0
M  V30 117 N -1.9198 -4.7281 -1.2001 0
M  V30 118 N 0.8494 -5.1898 -0.7522 0
M  V30 119 C 0.5599 -7.5472 -1.1451 0
M  V30 120 H -0.5550 -6.3622 0.2953 0
M  V30 121 C -0.4481 -8.6876 -1.2172 0
M  V30 122 H 1.3549 -7.7845 -0.4348 0
M  V30 123 H 1.0200 -7.3880 -2.1218 0
M  V30 124 C -1.5740 -8.3396 -2.1851 0
M  V30 125 H -0.8662 -8.8669 -0.2240 0
M  V30 126 H 0.0549 -9.6014 -1.5400 0
M  V30 127 C -2.2559 -7.0448 -1.7606 0
M  V30 128 H -2.3075 -9.1478 -2.2134 0
M  V30 129 H -1.1641 -8.2221 -3.1910 0
M  V30 130 H -2.7106 -7.1633 -0.7756 0
M  V30 131 H -3.0473 -6.7811 -2.4655 0
M  V30 132 H -0.8051 -5.7201 -2.6892 0
M  V30 133 C -3.9560 1.7449 -4.9537 0
M  V30 134 C -2.6534 2.1555 -5.6700 0
M  V30 135 N -3.6535 0.6677 -4.0650 0
M  V30 136 N -1.7592 2.6921 -4.6933 0
M  V30 137 C -2.9521 3.2371 -6.7119 0
M  V30 138 H -2.2358 1.2598 -6.1647 0
M  V30 139 C -3.9815 2.7516 -7.7249 0
M  V30 140 H -2.0207 3.5084 -7.2137 0
M  V30 141 H -3.3226 4.1223 -6.1920 0
M  V30 142 C -5.2692 2.3426 -7.0177 0
M  V30 143 H -3.5793 1.8947 -8.2702 0
M  V30 144 H -4.1860 3.5439 -8.4478 0
M  V30 145 C -4.9841 1.2631 -5.9809 0
M  V30 146 H -5.9943 1.9706 -7.7442 0
M  V30 147 H -5.7047 3.2147 -6.5244 0
M  V30 148 H -4.5916 0.3679 -6.4664 0
M  V30 149 H -5.9010 0.9853 -5.4566 0
M  V30 150 H -4.3454 2.6279 -4.4152 0
M  V30 151 C 5.7751 -0.4039 -3.4454 0
M  V30 152 C 5.7437 1.1370 -3.4996 0
M  V30 153 N 5.2221 -0.8157 -2.1940 0
M  V30 154 N 4.3768 1.5532 -3.5187 0
M  V30 155 C 6.4261 1.6259 -4.7801 0
M  V30 156 H 6.2809 1.5233 -2.6143 0
M  V30 157 C 7.8623 1.1236 -4.8606 0
M  V30 158 H 6.4017 2.7176 -4.7965 0
M  V30 159 H 5.8518 1.2651 -5.6350 0
M  V30 160 C 7.8953 -0.3998 -4.8044 0
M  V30 161 H 8.4371 1.5299 -4.0250 0
M  V30 162 H 8.3219 1.4748 -5.7867 0
M  V30 163 C 7.2219 -0.8975 -3.5313 0
M  V30 164 H 8.9275 -0.7542 -4.8354 0
M  V30 165 H 7.3739 -0.8062 -5.6742 0
M  V30 166 H 7.7610 -0.5367 -2.6535 0
M  V30 167 H 7.2233 -1.9892 -3.5001 0
M  V30 168 H 5.1929 -0.7900 -4.3017 0
M  V30 END ATOM
M  V30 BEGIN BOND
M  V30 1 1 139 143
M  V30 2 1 160 165
M  V30 3 1 124 129
M  V30 4 1 139 144
M  V30 5 1 160 164
M  V30 6 1 124 128
M  V30 7 1 142 146
M  V30 8 1 157 162
M  V30 9 1 121 126
M  V30 10 1 139 142
M  V30 11 1 137 139
M  V30 12 1 157 160
M  V30 13 1 160 163
M  V30 14 1 121 124
M  V30 15 1 124 127
M  V30 16 1 145 148
M  V30 17 1 155 159
M  V30 18 1 119 123
M  V30 19 1 137 140
M  V30 20 1 134 138
M  V30 21 1 142 145
M  V30 22 1 142 147
M  V30 23 1 151 168
M  V30 24 1 127 131
M  V30 25 1 163 167
M  V30 26 1 115 132
M  V30 27 1 155 157
M  V30 28 1 157 161
M  V30 29 1 119 121
M  V30 30 1 121 125
M  V30 31 1 134 137
M  V30 32 1 137 141
M  V30 33 1 145 149
M  V30 34 1 133 145
M  V30 35 1 151 163
M  V30 36 1 163 166
M  V30 37 1 115 127
M  V30 38 1 127 130
M  V30 39 1 155 158
M  V30 40 1 152 155
M  V30 41 1 119 122
M  V30 42 1 116 119
M  V30 43 1 57 60
M  V30 44 1 27 30
M  V30 45 1 42 45
M  V30 46 1 133 134
M  V30 47 1 134 136
M  V30 48 1 151 152
M  V30 49 1 151 153
M  V30 50 1 115 116
M  V30 51 1 115 117
M  V30 52 1 51 53
M  V30 53 1 21 23
M  V30 54 1 36 38
M  V30 55 1 133 135
M  V30 56 1 133 150
M  V30 57 1 152 154
M  V30 58 1 152 156
M  V30 59 1 116 118
M  V30 60 1 116 120
M  V30 61 2 57 136
M  V30 62 1 49 57
M  V30 63 2 27 117
M  V30 64 1 19 27
M  V30 65 2 42 153
M  V30 66 1 34 42
M  V30 67 2 25 135
M  V30 68 2 55 154
M  V30 69 2 40 118
M  V30 70 2 49 51
M  V30 71 1 51 52
M  V30 72 2 19 21
M  V30 73 1 21 22
M  V30 74 2 34 36
M  V30 75 1 36 37
M  V30 76 1 48 49
M  V30 77 1 18 19
M  V30 78 1 33 34
M  V30 79 1 22 25
M  V30 80 1 25 28
M  V30 81 1 52 55
M  V30 82 1 55 58
M  V30 83 1 37 40
M  V30 84 1 40 43
M  V30 85 2 22 24
M  V30 86 2 52 54
M  V30 87 2 37 39
M  V30 88 1 48 50
M  V30 89 2 46 48
M  V30 90 1 18 20
M  V30 91 2 16 18
M  V30 92 1 33 35
M  V30 93 2 31 33
M  V30 94 1 46 54
M  V30 95 1 54 56
M  V30 96 1 16 24
M  V30 97 1 24 26
M  V30 98 1 31 39
M  V30 99 1 39 41
M  V30 100 1 46 47
M  V30 101 1 16 17
M  V30 102 1 31 32
M  V30 103 1 47 59
M  V30 104 2 47 100
M  V30 105 1 17 29
M  V30 106 2 17 64
M  V30 107 1 32 44
M  V30 108 2 32 82
M  V30 109 1 98 100
M  V30 110 1 62 64
M  V30 111 1 80 82
M  V30 112 1 101 104
M  V30 113 1 65 68
M  V30 114 1 83 86
M  V30 115 1 101 105
M  V30 116 1 65 69
M  V30 117 1 83 87
M  V30 118 1 98 101
M  V30 119 1 98 102
M  V30 120 1 97 98
M  V30 121 1 62 65
M  V30 122 1 62 66
M  V30 123 1 61 62
M  V30 124 1 80 83
M  V30 125 1 80 84
M  V30 126 1 79 80
M  V30 127 1 101 103
M  V30 128 1 65 67
M  V30 129 1 83 85
M  V30 130 1 2 14
M  V30 131 1 12 15
M  V30 132 1 10 13
M  V30 133 1 3 5
M  V30 134 1 3 4
M  V30 135 2 1 3
M  V30 136 2 4 6
M  V30 137 1 4 12
M  V30 138 1 1 9
M  V30 139 1 1 2
M  V30 140 1 6 7
M  V30 141 1 6 8
M  V30 142 2 7 9
M  V30 143 1 9 11
M  V30 144 1 7 10
M  V30 145 2 12 99
M  V30 146 2 2 63
M  V30 147 2 10 81
M  V30 148 1 97 114
M  V30 149 1 61 78
M  V30 150 1 79 96
M  V30 151 1 97 99
M  V30 152 1 61 63
M  V30 153 1 79 81
M  V30 154 1 97 109
M  V30 155 1 61 73
M  V30 156 1 79 91
M  V30 157 1 103 108
M  V30 158 1 103 107
M  V30 159 1 103 106
M  V30 160 1 67 72
M  V30 161 1 67 71
M  V30 162 1 67 70
M  V30 163 1 85 90
M  V30 164 1 85 89
M  V30 165 1 85 88
M  V30 166 1 106 111
M  V30 167 1 70 75
M  V30 168 1 106 109
M  V30 169 1 109 112
M  V30 170 1 109 113
M  V30 171 1 70 73
M  V30 172 1 73 76
M  V30 173 1 73 77
M  V30 174 1 88 93
M  V30 175 1 88 91
M  V30 176 1 91 94
M  V30 177 1 91 95
M  V30 178 1 106 110
M  V30 179 1 70 74
M  V30 180 1 88 92
M  V30 END BOND
M  V30 END CTAB
M  END

$$$$
