
     RDKit          3D

  0  0  0  0  0  0  0  0  0  0999 V3000
M  V30 BEGIN CTAB
M  V30 COUNTS 168 180 0 0 0
M  V30 BEGIN ATOM
M  V30 1 C -2.4894 -0.9478 3.3988 0
M  V30 2 C -3.8355 -1.3208 2.9880 0
M  V30 3 C -2.1665 0.3891 3.5983 0
M  V30 4 C -0.8916 0.7561 4.0293 0
M  V30 5 H -2.8957 1.1686 3.4386 0
M  V30 6 C 0.0629 -0.2296 4.2497 0
M  V30 7 C -0.2465 -1.5756 4.0538 0
M  V30 8 H 1.0560 0.0220 4.5895 0
M  V30 9 C -1.5209 -1.9261 3.6242 0
M  V30 10 C 0.7431 -2.6088 4.3245 0
M  V30 11 H -1.7927 -2.9591 3.4697 0
M  V30 12 C -0.5687 2.1543 4.2763 0
M  V30 13 H 0.4729 -3.6264 4.0019 0
M  V30 14 H -4.4911 -0.4895 2.6854 0
M  V30 15 H 0.4935 2.3739 4.4653 0
M  V30 16 C -3.2543 -2.7777 -1.3545 0
M  V30 17 C -3.8512 -3.4686 -0.2203 0
M  V30 18 C -2.2156 -3.3701 -2.0628 0
M  V30 19 C -1.6613 -2.7367 -3.1751 0
M  V30 20 H -1.8261 -4.3355 -1.7779 0
M  V30 21 C -2.1506 -1.4964 -3.5669 0
M  V30 22 C -3.1928 -0.8895 -2.8659 0
M  V30 23 H -1.7471 -0.9841 -4.4268 0
M  V30 24 C -3.7353 -1.5326 -1.7597 0
M  V30 25 C -3.7300 0.3912 -3.3033 0
M  V30 26 H -4.5464 -1.0917 -1.2007 0
M  V30 27 C -0.6009 -3.3788 -3.9389 0
M  V30 28 H -4.4397 0.8735 -2.6132 0
M  V30 29 H -3.3177 -4.3671 0.1268 0
M  V30 30 H -0.1145 -2.7524 -4.7026 0
M  V30 31 C 3.8050 -2.0660 0.9116 0
M  V30 32 C 4.0169 -2.0620 2.3521 0
M  V30 33 C 4.2392 -0.9942 0.1408 0
M  V30 34 C 4.0778 -1.0030 -1.2447 0
M  V30 35 H 4.7218 -0.1415 0.5933 0
M  V30 36 C 3.4666 -2.0932 -1.8523 0
M  V30 37 C 3.0256 -3.1762 -1.0918 0
M  V30 38 H 3.3329 -2.1325 -2.9225 0
M  V30 39 C 3.1934 -3.1535 0.2877 0
M  V30 40 C 2.4221 -4.3345 -1.7357 0
M  V30 41 H 2.8685 -3.9789 0.9025 0
M  V30 42 C 4.5706 0.1034 -2.0529 0
M  V30 43 H 1.9636 -5.0730 -1.0599 0
M  V30 44 H 4.3634 -1.1091 2.7816 0
M  V30 45 H 4.2694 0.0940 -3.1119 0
M  V30 46 C -0.4544 3.9814 0.0380 0
M  V30 47 C -1.2393 4.3836 1.1965 0
M  V30 48 C -1.0853 3.7065 -1.1694 0
M  V30 49 C -0.3418 3.3582 -2.2971 0
M  V30 50 H -2.1584 3.7700 -1.2647 0
M  V30 51 C 1.0422 3.2772 -2.2022 0
M  V30 52 C 1.6895 3.5501 -0.9970 0
M  V30 53 H 1.6455 3.0164 -3.0583 0
M  V30 54 C 0.9357 3.8960 0.1182 0
M  V30 55 C 3.1424 3.5036 -0.9115 0
M  V30 56 H 1.4076 4.1192 1.0628 0
M  V30 57 C -1.0031 3.1107 -3.5705 0
M  V30 58 H 3.5649 3.5785 0.1025 0
M  V30 59 H -2.3306 4.2773 1.0948 0
M  V30 60 H -0.3676 2.6932 -4.3668 0
M  V30 61 C -5.5651 -2.8430 2.6167 0
M  V30 62 C -5.4924 -3.7951 1.4058 0
M  V30 63 N -4.2295 -2.5180 3.0075 0
M  V30 64 N -4.9265 -3.0767 0.3078 0
M  V30 65 C -6.9012 -4.2545 1.0206 0
M  V30 66 H -4.8758 -4.6670 1.6905 0
M  V30 67 C -7.5919 -4.9418 2.1920 0
M  V30 68 H -6.8289 -4.9332 0.1681 0
M  V30 69 H -7.4737 -3.3805 0.7052 0
M  V30 70 C -7.6620 -4.0025 3.3913 0
M  V30 71 H -7.0340 -5.8400 2.4670 0
M  V30 72 H -8.5973 -5.2482 1.8962 0
M  V30 73 C -6.2642 -3.5420 3.7859 0
M  V30 74 H -8.1334 -4.5080 4.2365 0
M  V30 75 H -8.2729 -3.1335 3.1360 0
M  V30 76 H -5.6568 -4.3967 4.0884 0
M  V30 77 H -6.3139 -2.8506 4.6298 0
M  V30 78 H -6.1372 -1.9467 2.3157 0
M  V30 79 C 2.7637 -3.3989 5.1840 0
M  V30 80 C 4.0826 -3.0556 4.4622 0
M  V30 81 N 1.8260 -2.3543 4.9173 0
M  V30 82 N 3.8425 -3.0943 3.0540 0
M  V30 83 C 5.1507 -4.0964 4.8088 0
M  V30 84 H 4.4079 -2.0545 4.7984 0
M  V30 85 C 5.3760 -4.1686 6.3140 0
M  V30 86 H 6.0781 -3.8324 4.2959 0
M  V30 87 H 4.8225 -5.0656 4.4295 0
M  V30 88 C 4.0722 -4.5051 7.0296 0
M  V30 89 H 5.7486 -3.2062 6.6726 0
M  V30 90 H 6.1316 -4.9251 6.5356 0
M  V30 91 C 3.0025 -3.4731 6.6946 0
M  V30 92 H 4.2324 -4.5295 8.1094 0
M  V30 93 H 3.7325 -5.4954 6.7178 0
M  V30 94 H 3.3089 -2.4853 7.0431 0
M  V30 95 H 2.0609 -3.7251 7.1873 0
M  V30 96 H 2.4108 -4.3767 4.8090 0
M  V30 97 C -1.1047 4.4070 4.5667 0
M  V30 98 C -1.5079 5.2558 3.3440 0
M  V30 99 N -1.4572 3.0481 4.3004 0
M  V30 100 N -0.7012 4.8514 2.2360 0
M  V30 101 C -1.2457 6.7368 3.6301 0
M  V30 102 H -2.5841 5.0931 3.1524 0
M  V30 103 C -2.0066 7.1980 4.8671 0
M  V30 104 H -1.5446 7.3217 2.7576 0
M  V30 105 H -0.1727 6.8746 3.7741 0
M  V30 106 C -1.6110 6.3579 6.0766 0
M  V30 107 H -3.0803 7.0984 4.6917 0
M  V30 108 H -1.7935 8.2520 5.0565 0
M  V30 109 C -1.8714 4.8816 5.8041 0
M  V30 110 H -2.1780 6.6740 6.9545 0
M  V30 111 H -0.5500 6.5067 6.2902 0
M  V30 112 H -2.9362 4.7112 5.6351 0
M  V30 113 H -1.5669 4.2756 6.6602 0
M  V30 114 H -0.0178 4.5283 4.7263 0
M  V30 115 C 0.7479 -5.1872 -4.5363 0
M  V30 116 C 1.8661 -5.6508 -3.5809 0
M  V30 117 N -0.2842 -4.5847 -3.7532 0
M  V30 118 N 2.4516 -4.4908 -2.9861 0
M  V30 119 C 2.9451 -6.3991 -4.3684 0
M  V30 120 H 1.4171 -6.3207 -2.8253 0
M  V30 121 C 2.3539 -7.5928 -5.1081 0
M  V30 122 H 3.7229 -6.7264 -3.6751 0
M  V30 123 H 3.3988 -5.7034 -5.0765 0
M  V30 124 C 1.2459 -7.1363 -6.0512 0
M  V30 125 H 1.9452 -8.3025 -4.3851 0
M  V30 126 H 3.1396 -8.1010 -5.6707 0
M  V30 127 C 0.1640 -6.3935 -5.2769 0
M  V30 128 H 0.8071 -7.9975 -6.5590 0
M  V30 129 H 1.6670 -6.4755 -6.8125 0
M  V30 130 H -0.2978 -7.0567 -4.5436 0
M  V30 131 H -0.6190 -6.0450 -5.9538 0
M  V30 132 H 1.1863 -4.4760 -5.2597 0
M  V30 133 C -3.9838 2.1466 -4.8203 0
M  V30 134 C -2.8296 3.1491 -5.0227 0
M  V30 135 N -3.4210 0.8971 -4.4157 0
M  V30 136 N -2.2194 3.3867 -3.7528 0
M  V30 137 C -3.3795 4.4730 -5.5607 0
M  V30 138 H -2.1185 2.7132 -5.7478 0
M  V30 139 C -4.1313 4.2618 -6.8691 0
M  V30 140 H -2.5480 5.1661 -5.7054 0
M  V30 141 H -4.0445 4.9002 -4.8081 0
M  V30 142 C -5.2713 3.2686 -6.6710 0
M  V30 143 H -3.4434 3.8783 -7.6261 0
M  V30 144 H -4.5235 5.2169 -7.2245 0
M  V30 145 C -4.7345 1.9453 -6.1395 0
M  V30 146 H -5.7905 3.1000 -7.6166 0
M  V30 147 H -5.9919 3.6804 -5.9606 0
M  V30 148 H -4.0480 1.4994 -6.8612 0
M  V30 149 H -5.5519 1.2401 -5.9746 0
M  V30 150 H -4.6673 2.5588 -4.0559 0
M  V30 151 C 5.8000 2.0564 -2.4005 0
M  V30 152 C 5.2901 3.3901 -1.8176 0
M  V30 153 N 5.3186 0.9966 -1.5718 0
M  V30 154 N 3.8665 3.4127 -1.9392 0
M  V30 155 C 5.8718 4.5613 -2.6140 0
M  V30 156 H 5.6158 3.4515 -0.7633 0
M  V30 157 C 7.3951 4.5278 -2.6025 0
M  V30 158 H 5.5070 5.4957 -2.1820 0
M  V30 159 H 5.5008 4.4985 -3.6384 0
M  V30 160 C 7.9007 3.2084 -3.1760 0
M  V30 161 H 7.7536 4.6383 -1.5764 0
M  V30 162 H 7.7844 5.3642 -3.1864 0
M  V30 163 C 7.3309 2.0354 -2.3880 0
M  V30 164 H 8.9916 3.1778 -3.1412 0
M  V30 165 H 7.5953 3.1267 -4.2217 0
M  V30 166 H 7.6669 2.0789 -1.3505 0
M  V30 167 H 7.6729 1.0886 -2.8115 0
M  V30 168 H 5.4295 1.9706 -3.4381 0
M  V30 END ATOM
M  V30 BEGIN BOND
M  V30 1 1 139 143
M  V30 2 1 160 165
M  V30 3 1 124 129
M  V30 4 1 139 144
M  V30 5 1 160 164
M  V30 6 1 124 128
M  V30 7 1 142 146
M  V30 8 1 157 162
M  V30 9 1 121 126
M  V30 10 1 139 142
M  V30 11 1 137 139
M  V30 12 1 157 160
M  V30 13 1 160 163
M  V30 14 1 121 124
M  V30 15 1 124 127
M  V30 16 1 145 148
M  V30 17 1 155 159
M  V30 18 1 119 123
M  V30 19 1 137 140
M  V30 20 1 134 138
M  V30 21 1 142 145
M  V30 22 1 142 147
M  V30 23 1 151 168
M  V30 24 1 127 131
M  V30 25 1 163 167
M  V30 26 1 115 132
M  V30 27 1 155 157
M  V30 28 1 157 161
M  V30 29 1 119 121
M  V30 30 1 121 125
M  V30 31 1 134 137
M  V30 32 1 137 141
M  V30 33 1 145 149
M  V30 34 1 133 145
M  V30 35 1 151 163
M  V30 36 1 163 166
M  V30 37 1 115 127
M  V30 38 1 127 130
M  V30 39 1 155 158
M  V30 40 1 152 155
M  V30 41 1 119 122
M  V30 42 1 116 119
M  V30 43 1 57 60
M  V30 44 1 27 30
M  V30 45 1 42 45
M  V30 46 1 133 134
M  V30 47 1 134 136
M  V30 48 1 151 152
M  V30 49 1 151 153
M  V30 50 1 115 116
M  V30 51 1 115 117
M  V30 52 1 51 53
M  V30 53 1 21 23
M  V30 54 1 36 38
M  V30 55 1 133 135
M  V30 56 1 133 150
M  V30 57 1 152 154
M  V30 58 1 152 156
M  V30 59 1 116 118
M  V30 60 1 116 120
M  V30 61 2 57 136
M  V30 62 1 49 57
M  V30 63 2 27 117
M  V30 64 1 19 27
M  V30 65 2 42 153
M  V30 66 1 34 42
M  V30 67 2 25 135
M  V30 68 2 55 154
M  V30 69 2 40 118
M  V30 70 2 49 51
M  V30 71 1 51 52
M  V30 72 2 19 21
M  V30 73 1 21 22
M  V30 74 2 34 36
M  V30 75 1 36 37
M  V30 76 1 48 49
M  V30 77 1 18 19
M  V30 78 1 33 34
M  V30 79 1 22 25
M  V30 80 1 25 28
M  V30 81 1 52 55
M  V30 82 1 55 58
M  V30 83 1 37 40
M  V30 84 1 40 43
M  V30 85 2 22 24
M  V30 86 2 52 54
M  V30 87 2 37 39
M  V30 88 1 48 50
M  V30 89 2 46 48
M  V30 90 1 18 20
M  V30 91 2 16 18
M  V30 92 1 33 35
M  V30 93 2 31 33
M  V30 94 1 46 54
M  V30 95 1 54 56
M  V30 96 1 16 24
M  V30 97 1 24 26
M  V30 98 1 31 39
M  V30 99 1 39 41
M  V30 100 1 46 47
M  V30 101 1 16 17
M  V30 102 1 31 32
M  V30 103 1 47 59
M  V30 104 2 47 100
M  V30 105 1 17 29
M  V30 106 2 17 64
M  V30 107 1 32 44
M  V30 108 2 32 82
M  V30 109 1 98 100
M  V30 110 1 62 64
M  V30 111 1 80 82
M  V30 112 1 101 104
M  V30 113 1 65 68
M  V30 114 1 83 86
M  V30 115 1 101 105
M  V30 116 1 65 69
M  V30 117 1 83 87
M  V30 118 1 98 101
M  V30 119 1 98 102
M  V30 120 1 97 98
M  V30 121 1 62 65
M  V30 122 1 62 66
M  V30 123 1 61 62
M  V30 124 1 80 83
M  V30 125 1 80 84
M  V30 126 1 79 80
M  V30 127 1 101 103
M  V30 128 1 65 67
M  V30 129 1 83 85
M  V30 130 1 2 14
M  V30 131 1 12 15
M  V30 132 1 10 13
M  V30 133 1 3 5
M  V30 134 1 3 4
M  V30 135 2 1 3
M  V30 136 2 4 6
M  V30 137 1 4 12
M  V30 138 1 1 9
M  V30 139 1 1 2
M  V30 140 1 6 7
M  V30 141 1 6 8
M  V30 142 2 7 9
M  V30 143 1 9 11
M  V30 144 1 7 10
M  V30 145 2 12 99
M  V30 146 2 2 63
M  V30 147 2 10 81
M  V30 148 1 97 114
M  V30 149 1 61 78
M  V30 150 1 79 96
M  V30 151 1 97 99
M  V30 152 1 61 63
M  V30 153 1 79 81
M  V30 154 1 97 109
M  V30 155 1 61 73
M  V30 156 1 79 91
M  V30 157 1 103 108
M  V30 158 1 103 107
M  V30 159 1 103 106
M  V30 160 1 67 72
M  V30 161 1 67 71
M  V30 162 1 67 70
M  V30 163 1 85 90
M  V30 164 1 85 89
M  V30 165 1 85 88
M  V30 166 1 106 111
M  V30 167 1 70 75
M  V30 168 1 106 109
M  V30 169 1 109 112
M  V30 170 1 109 113
M  V30 171 1 70 73
M  V30 172 1 73 76
M  V30 173 1 73 77
M  V30 174 1 88 93
M  V30 175 1 88 91
M  V30 176 1 91 94
M  V30 177 1 91 95
M  V30 178 1 106 110
M  V30 179 1 70 74
M  V30 180 1 88 92
M  V30 END BOND
M  V30 END CTAB
M  END

$$$$
