
     RDKit          3D

  0  0  0  0  0  0  0  0  0  0999 V3000
M  V30 BEGIN CTAB
M  V30 COUNTS 168 180 0 0 0
M  V30 BEGIN ATOM
M  V30 1 C -0.0943 -3.7859 2.3281 0
M  V30 2 C -1.1201 -3.7355 3.3603 0
M  V30 3 C 1.1837 -3.3076 2.5912 0
M  V30 4 C 2.1853 -3.3858 1.6235 0
M  V30 5 H 1.4323 -2.8799 3.5503 0
M  V30 6 C 1.8925 -3.9396 0.3831 0
M  V30 7 C 0.6142 -4.4238 0.1045 0
M  V30 8 H 2.6475 -4.0200 -0.3839 0
M  V30 9 C -0.3735 -4.3391 1.0784 0
M  V30 10 C 0.3212 -5.0404 -1.1817 0
M  V30 11 H -1.3703 -4.7108 0.8953 0
M  V30 12 C 3.5339 -2.9209 1.9162 0
M  V30 13 H -0.7406 -5.2567 -1.3777 0
M  V30 14 H -0.8671 -3.1505 4.2581 0
M  V30 15 H 4.2216 -2.8765 1.0575 0
M  V30 16 C -4.0504 -0.5321 1.7887 0
M  V30 17 C -4.3100 -1.9117 2.1748 0
M  V30 18 C -4.4293 -0.0776 0.5312 0
M  V30 19 C -4.2220 1.2518 0.1632 0
M  V30 20 H -4.9033 -0.7365 -0.1801 0
M  V30 21 C -3.6206 2.1222 1.0643 0
M  V30 22 C -3.2349 1.6805 2.3300 0
M  V30 23 H -3.4525 3.1579 0.8115 0
M  V30 24 C -3.4479 0.3533 2.6828 0
M  V30 25 C -2.6419 2.6050 3.2860 0
M  V30 26 H -3.1664 -0.0169 3.6567 0
M  V30 27 C -4.6573 1.7343 -1.1398 0
M  V30 28 H -2.2262 2.1491 4.1981 0
M  V30 29 H -4.6444 -2.5796 1.3658 0
M  V30 30 H -4.3213 2.7468 -1.4121 0
M  V30 31 C 0.3976 -1.4724 -4.1111 0
M  V30 32 C 1.1536 -2.7160 -4.1501 0
M  V30 33 C 1.0612 -0.2521 -4.1580 0
M  V30 34 C 0.3472 0.9461 -4.1609 0
M  V30 35 H 2.1383 -0.2050 -4.2075 0
M  V30 36 C -1.0410 0.9119 -4.1058 0
M  V30 37 C -1.7210 -0.3051 -4.0582 0
M  V30 38 H -1.6219 1.8215 -4.1129 0
M  V30 39 C -0.9961 -1.4910 -4.0561 0
M  V30 40 C -3.1766 -0.3382 -4.0413 0
M  V30 41 H -1.4936 -2.4484 -4.0265 0
M  V30 42 C 1.0443 2.2213 -4.2513 0
M  V30 43 H -3.6308 -1.3225 -3.8487 0
M  V30 44 H 2.2445 -2.6160 -4.0381 0
M  V30 45 H 0.4250 3.1178 -4.0927 0
M  V30 46 C 3.0582 1.6677 2.0969 0
M  V30 47 C 3.5976 0.7548 3.0948 0
M  V30 48 C 2.0279 2.5376 2.4333 0
M  V30 49 C 1.5287 3.4442 1.4981 0
M  V30 50 H 1.6030 2.5411 3.4253 0
M  V30 51 C 2.0646 3.4649 0.2161 0
M  V30 52 C 3.0988 2.5975 -0.1363 0
M  V30 53 H 1.7041 4.1587 -0.5278 0
M  V30 54 C 3.5862 1.6998 0.8061 0
M  V30 55 C 3.6853 2.6496 -1.4681 0
M  V30 56 H 4.3899 1.0208 0.5659 0
M  V30 57 C 0.4773 4.3818 1.8663 0
M  V30 58 H 4.3842 1.8354 -1.7155 0
M  V30 59 H 3.0281 0.6832 4.0345 0
M  V30 60 H 0.0337 4.9536 1.0365 0
M  V30 61 C -3.1891 -4.2926 4.2849 0
M  V30 62 C -4.4733 -3.6620 3.7092 0
M  V30 63 N -2.2149 -4.3488 3.2410 0
M  V30 64 N -4.1875 -2.3045 3.3662 0
M  V30 65 C -5.5804 -3.6806 4.7665 0
M  V30 66 H -4.7823 -4.2540 2.8286 0
M  V30 67 C -5.8577 -5.1010 5.2433 0
M  V30 68 H -6.4827 -3.2383 4.3387 0
M  V30 69 H -5.2663 -3.0559 5.6045 0
M  V30 70 C -4.5881 -5.7271 5.8102 0
M  V30 71 H -6.2157 -5.7028 4.4046 0
M  V30 72 H -6.6406 -5.0859 6.0042 0
M  V30 73 C -3.4800 -5.7173 4.7644 0
M  V30 74 H -4.7849 -6.7536 6.1259 0
M  V30 75 H -4.2654 -5.1617 6.6875 0
M  V30 76 H -3.7708 -6.3181 3.9010 0
M  V30 77 H -2.5627 -6.1439 5.1759 0
M  V30 78 H -2.8506 -3.6703 5.1330 0
M  V30 79 C 0.9072 -5.9566 -3.2464 0
M  V30 80 C 1.3734 -5.0270 -4.3853 0
M  V30 81 N 1.2319 -5.3329 -2.0025 0
M  V30 82 N 0.5937 -3.8308 -4.3310 0
M  V30 83 C 1.1411 -5.7058 -5.7379 0
M  V30 84 H 2.4506 -4.8246 -4.2446 0
M  V30 85 C 1.8724 -7.0404 -5.8129 0
M  V30 86 H 1.4843 -5.0371 -6.5302 0
M  V30 87 H 0.0679 -5.8557 -5.8677 0
M  V30 88 C 1.4145 -7.9598 -4.6857 0
M  V30 89 H 2.9483 -6.8710 -5.7284 0
M  V30 90 H 1.6810 -7.5093 -6.7804 0
M  V30 91 C 1.6447 -7.2954 -3.3339 0
M  V30 92 H 1.9602 -8.9046 -4.7273 0
M  V30 93 H 0.3514 -8.1800 -4.8065 0
M  V30 94 H 2.7095 -7.1120 -3.1801 0
M  V30 95 H 1.2960 -7.9423 -2.5260 0
M  V30 96 H -0.1807 -6.1167 -3.3568 0
M  V30 97 C 5.2325 -2.1854 3.3376 0
M  V30 98 C 5.1740 -0.7570 3.9156 0
M  V30 99 N 3.8941 -2.6181 3.0855 0
M  V30 100 N 4.6650 0.1127 2.9024 0
M  V30 101 C 6.5817 -0.2942 4.3009 0
M  V30 102 H 4.5245 -0.7742 4.8096 0
M  V30 103 C 7.2137 -1.2462 5.3088 0
M  V30 104 H 6.5192 0.7143 4.7151 0
M  V30 105 H 7.1883 -0.2470 3.3948 0
M  V30 106 C 7.2698 -2.6599 4.7397 0
M  V30 107 H 6.6225 -1.2482 6.2275 0
M  V30 108 H 8.2196 -0.9017 5.5573 0
M  V30 109 C 5.8729 -3.1322 4.3562 0
M  V30 110 H 7.6986 -3.3435 5.4752 0
M  V30 111 H 7.9125 -2.6700 3.8564 0
M  V30 112 H 5.2324 -3.1716 5.2391 0
M  V30 113 H 5.9134 -4.1356 3.9266 0
M  V30 114 H 5.8387 -2.1582 2.4139 0
M  V30 115 C -5.8208 1.5583 -3.1552 0
M  V30 116 C -5.2950 0.6171 -4.2578 0
M  V30 117 N -5.3965 1.0434 -1.8917 0
M  V30 118 N -3.8679 0.6923 -4.2628 0
M  V30 119 C -5.8176 1.0729 -5.6228 0
M  V30 120 H -5.6540 -0.4046 -4.0379 0
M  V30 121 C -7.3407 1.1089 -5.6413 0
M  V30 122 H -5.4423 0.3907 -6.3887 0
M  V30 123 H -5.4141 2.0653 -5.8316 0
M  V30 124 C -7.8624 2.0371 -4.5497 0
M  V30 125 H -7.7303 0.1015 -5.4776 0
M  V30 126 H -7.6874 1.4484 -6.6195 0
M  V30 127 C -7.3513 1.5900 -3.1856 0
M  V30 128 H -8.9542 2.0391 -4.5492 0
M  V30 129 H -7.5243 3.0568 -4.7485 0
M  V30 130 H -7.7208 0.5896 -2.9537 0
M  V30 131 H -7.7044 2.2671 -2.4048 0
M  V30 132 H -5.4183 2.5698 -3.3455 0
M  V30 133 C -2.0607 4.7285 4.0604 0
M  V30 134 C -0.8991 5.4903 3.3904 0
M  V30 135 N -2.6339 3.8501 3.0901 0
M  V30 136 N 0.1223 4.5458 3.0645 0
M  V30 137 C -0.3238 6.5219 4.3647 0
M  V30 138 H -1.2939 5.9985 2.4920 0
M  V30 139 C -1.3990 7.4979 4.8261 0
M  V30 140 H 0.4905 7.0562 3.8705 0
M  V30 141 H 0.0954 5.9900 5.2206 0
M  V30 142 C -2.5496 6.7458 5.4864 0
M  V30 143 H -1.7766 8.0563 3.9664 0
M  V30 144 H -0.9670 8.2139 5.5283 0
M  V30 145 C -3.1326 5.7188 4.5236 0
M  V30 146 H -3.3296 7.4463 5.7914 0
M  V30 147 H -2.1845 6.2383 6.3822 0
M  V30 148 H -3.5437 6.2170 3.6438 0
M  V30 149 H -3.9416 5.1626 5.0022 0
M  V30 150 H -1.6553 4.1775 4.9283 0
M  V30 151 C 2.9195 3.5597 -4.6239 0
M  V30 152 C 4.0382 3.6139 -3.5639 0
M  V30 153 N 2.2732 2.2893 -4.5231 0
M  V30 154 N 3.4280 3.5856 -2.2721 0
M  V30 155 C 4.8278 4.9179 -3.7078 0
M  V30 156 H 4.7063 2.7483 -3.7243 0
M  V30 157 C 5.4183 5.0481 -5.1064 0
M  V30 158 H 5.6194 4.9342 -2.9557 0
M  V30 159 H 4.1542 5.7519 -3.5036 0
M  V30 160 C 4.3136 4.9919 -6.1559 0
M  V30 161 H 6.1254 4.2335 -5.2799 0
M  V30 162 H 5.9648 5.9900 -5.1870 0
M  V30 163 C 3.5235 3.6957 -6.0243 0
M  V30 164 H 4.7437 5.0587 -7.1572 0
M  V30 165 H 3.6417 5.8426 -6.0211 0
M  V30 166 H 4.1739 2.8375 -6.2030 0
M  V30 167 H 2.7168 3.6637 -6.7597 0
M  V30 168 H 2.2219 4.3947 -4.4308 0
M  V30 END ATOM
M  V30 BEGIN BOND
M  V30 1 1 139 143
M  V30 2 1 160 165
M  V30 3 1 124 129
M  V30 4 1 139 144
M  V30 5 1 160 164
M  V30 6 1 124 128
M  V30 7 1 142 146
M  V30 8 1 157 162
M  V30 9 1 121 126
M  V30 10 1 139 142
M  V30 11 1 137 139
M  V30 12 1 157 160
M  V30 13 1 160 163
M  V30 14 1 121 124
M  V30 15 1 124 127
M  V30 16 1 145 148
M  V30 17 1 155 159
M  V30 18 1 119 123
M  V30 19 1 137 140
M  V30 20 1 134 138
M  V30 21 1 142 145
M  V30 22 1 142 147
M  V30 23 1 151 168
M  V30 24 1 127 131
M  V30 25 1 163 167
M  V30 26 1 115 132
M  V30 27 1 155 157
M  V30 28 1 157 161
M  V30 29 1 119 121
M  V30 30 1 121 125
M  V30 31 1 134 137
M  V30 32 1 137 141
M  V30 33 1 145 149
M  V30 34 1 133 145
M  V30 35 1 151 163
M  V30 36 1 163 166
M  V30 37 1 115 127
M  V30 38 1 127 130
M  V30 39 1 155 158
M  V30 40 1 152 155
M  V30 41 1 119 122
M  V30 42 1 116 119
M  V30 43 1 57 60
M  V30 44 1 27 30
M  V30 45 1 42 45
M  V30 46 1 133 134
M  V30 47 1 134 136
M  V30 48 1 151 152
M  V30 49 1 151 153
M  V30 50 1 115 116
M  V30 51 1 115 117
M  V30 52 1 51 53
M  V30 53 1 21 23
M  V30 54 1 36 38
M  V30 55 1 133 135
M  V30 56 1 133 150
M  V30 57 1 152 154
M  V30 58 1 152 156
M  V30 59 1 116 118
M  V30 60 1 116 120
M  V30 61 2 57 136
M  V30 62 1 49 57
M  V30 63 2 27 117
M  V30 64 1 19 27
M  V30 65 2 42 153
M  V30 66 1 34 42
M  V30 67 2 25 135
M  V30 68 2 55 154
M  V30 69 2 40 118
M  V30 70 2 49 51
M  V30 71 1 51 52
M  V30 72 2 19 21
M  V30 73 1 21 22
M  V30 74 2 34 36
M  V30 75 1 36 37
M  V30 76 1 48 49
M  V30 77 1 18 19
M  V30 78 1 33 34
M  V30 79 1 22 25
M  V30 80 1 25 28
M  V30 81 1 52 55
M  V30 82 1 55 58
M  V30 83 1 37 40
M  V30 84 1 40 43
M  V30 85 2 22 24
M  V30 86 2 52 54
M  V30 87 2 37 39
M  V30 88 1 48 50
M  V30 89 2 46 48
M  V30 90 1 18 20
M  V30 91 2 16 18
M  V30 92 1 33 35
M  V30 93 2 31 33
M  V30 94 1 46 54
M  V30 95 1 54 56
M  V30 96 1 16 24
M  V30 97 1 24 26
M  V30 98 1 31 39
M  V30 99 1 39 41
M  V30 100 1 46 47
M  V30 101 1 16 17
M  V30 102 1 31 32
M  V30 103 1 47 59
M  V30 104 2 47 100
M  V30 105 1 17 29
M  V30 106 2 17 64
M  V30 107 1 32 44
M  V30 108 2 32 82
M  V30 109 1 98 100
M  V30 110 1 62 64
M  V30 111 1 80 82
M  V30 112 1 101 104
M  V30 113 1 65 68
M  V30 114 1 83 86
M  V30 115 1 101 105
M  V30 116 1 65 69
M  V30 117 1 83 87
M  V30 118 1 98 101
M  V30 119 1 98 102
M  V30 120 1 97 98
M  V30 121 1 62 65
M  V30 122 1 62 66
M  V30 123 1 61 62
M  V30 124 1 80 83
M  V30 125 1 80 84
M  V30 126 1 79 80
M  V30 127 1 101 103
M  V30 128 1 65 67
M  V30 129 1 83 85
M  V30 130 1 2 14
M  V30 131 1 12 15
M  V30 132 1 10 13
M  V30 133 1 3 5
M  V30 134 1 3 4
M  V30 135 2 1 3
M  V30 136 2 4 6
M  V30 137 1 4 12
M  V30 138 1 1 9
M  V30 139 1 1 2
M  V30 140 1 6 7
M  V30 141 1 6 8
M  V30 142 2 7 9
M  V30 143 1 9 11
M  V30 144 1 7 10
M  V30 145 2 12 99
M  V30 146 2 2 63
M  V30 147 2 10 81
M  V30 148 1 97 114
M  V30 149 1 61 78
M  V30 150 1 79 96
M  V30 151 1 97 99
M  V30 152 1 61 63
M  V30 153 1 79 81
M  V30 154 1 97 109
M  V30 155 1 61 73
M  V30 156 1 79 91
M  V30 157 1 103 108
M  V30 158 1 103 107
M  V30 159 1 103 106
M  V30 160 1 67 72
M  V30 161 1 67 71
M  V30 162 1 67 70
M  V30 163 1 85 90
M  V30 164 1 85 89
M  V30 165 1 85 88
M  V30 166 1 106 111
M  V30 167 1 70 75
M  V30 168 1 106 109
M  V30 169 1 109 112
M  V30 170 1 109 113
M  V30 171 1 70 73
M  V30 172 1 73 76
M  V30 173 1 73 77
M  V30 174 1 88 93
M  V30 175 1 88 91
M  V30 176 1 91 94
M  V30 177 1 91 95
M  V30 178 1 106 110
M  V30 179 1 70 74
M  V30 180 1 88 92
M  V30 END BOND
M  V30 END CTAB
M  END

$$$$
