
     RDKit          3D

  0  0  0  0  0  0  0  0  0  0999 V3000
M  V30 BEGIN CTAB
M  V30 COUNTS 168 180 0 0 0
M  V30 BEGIN ATOM
M  V30 1 C -1.6756 -3.6069 -1.6524 0
M  V30 2 C -2.7618 -4.0927 -0.8132 0
M  V30 3 C -0.3740 -4.0393 -1.4278 0
M  V30 4 C 0.6690 -3.6113 -2.2490 0
M  V30 5 H -0.1447 -4.7238 -0.6256 0
M  V30 6 C 0.3983 -2.7361 -3.2940 0
M  V30 7 C -0.9031 -2.2934 -3.5316 0
M  V30 8 H 1.1828 -2.3920 -3.9505 0
M  V30 9 C -1.9321 -2.7283 -2.7050 0
M  V30 10 C -1.1901 -1.4085 -4.6518 0
M  V30 11 H -2.9503 -2.4088 -2.8671 0
M  V30 12 C 2.0249 -4.0980 -2.0362 0
M  V30 13 H -2.2067 -0.9864 -4.6797 0
M  V30 14 H -2.4590 -4.6571 0.0823 0
M  V30 15 H 2.8102 -3.5993 -2.6251 0
M  V30 16 C -3.9628 -0.3646 1.6316 0
M  V30 17 C -4.7839 -1.2176 0.7842 0
M  V30 18 C -3.9286 1.0076 1.4140 0
M  V30 19 C -3.1771 1.8407 2.2429 0
M  V30 20 H -4.4916 1.4588 0.6113 0
M  V30 21 C -2.4496 1.2848 3.2883 0
M  V30 22 C -2.4742 -0.0908 3.5191 0
M  V30 23 H -1.8638 1.9034 3.9507 0
M  V30 24 C -3.2276 -0.9083 2.6851 0
M  V30 25 C -1.7430 -0.6649 4.6398 0
M  V30 26 H -3.2717 -1.9752 2.8418 0
M  V30 27 C -3.1762 3.2820 2.0368 0
M  V30 28 H -1.6871 -1.7644 4.6619 0
M  V30 29 H -5.2069 -0.7366 -0.1113 0
M  V30 30 H -2.4428 3.8499 2.6300 0
M  V30 31 C 0.7106 2.5948 -3.3561 0
M  V30 32 C 0.9366 1.8128 -4.5633 0
M  V30 33 C 1.7836 2.9595 -2.5516 0
M  V30 34 C 1.5858 3.7416 -1.4137 0
M  V30 35 H 2.7909 2.6592 -2.7961 0
M  V30 36 C 0.2989 4.1478 -1.0817 0
M  V30 37 C -0.7879 3.7895 -1.8794 0
M  V30 38 H 0.1141 4.7587 -0.2114 0
M  V30 39 C -0.5754 3.0100 -3.0103 0
M  V30 40 C -2.1295 4.2505 -1.5510 0
M  V30 41 H -1.3949 2.7220 -3.6509 0
M  V30 42 C 2.7172 4.1557 -0.5960 0
M  V30 43 H -2.9466 3.8011 -2.1361 0
M  V30 44 H 1.9498 1.3980 -4.6815 0
M  V30 45 H 2.4651 4.6366 0.3619 0
M  V30 46 C 3.2935 -2.0218 1.8873 0
M  V30 47 C 3.2754 -3.4397 1.5564 0
M  V30 48 C 2.6275 -1.5618 3.0170 0
M  V30 49 C 2.6695 -0.2121 3.3669 0
M  V30 50 H 2.0776 -2.2376 3.6538 0
M  V30 51 C 3.3775 0.6772 2.5676 0
M  V30 52 C 4.0507 0.2301 1.4305 0
M  V30 53 H 3.4339 1.7261 2.8151 0
M  V30 54 C 4.0002 -1.1174 1.0944 0
M  V30 55 C 4.8250 1.1577 0.6178 0
M  V30 56 H 4.5159 -1.4950 0.2248 0
M  V30 57 C 2.0045 0.2593 4.5735 0
M  V30 58 H 5.1954 0.7606 -0.3401 0
M  V30 59 H 2.5741 -4.0575 2.1386 0
M  V30 60 H 1.9533 1.3523 4.6959 0
M  V30 61 C -5.0102 -4.4119 -0.2755 0
M  V30 62 C -5.8470 -3.2196 0.2309 0
M  V30 63 N -3.9711 -3.9016 -1.1134 0
M  V30 64 N -5.0176 -2.4211 1.0772 0
M  V30 65 C -7.0377 -3.7299 1.0470 0
M  V30 66 H -6.2064 -2.6538 -0.6478 0
M  V30 67 C -7.9053 -4.6703 0.2196 0
M  V30 68 H -7.6221 -2.8732 1.3896 0
M  V30 69 H -6.6543 -4.2475 1.9280 0
M  V30 70 C -7.0786 -5.8483 -0.2844 0
M  V30 71 H -8.3199 -4.1270 -0.6328 0
M  V30 72 H -8.7388 -5.0293 0.8267 0
M  V30 73 C -5.8923 -5.3519 -1.1017 0
M  V30 74 H -7.6975 -6.5052 -0.8988 0
M  V30 75 H -6.7162 -6.4280 0.5677 0
M  V30 76 H -6.2412 -4.8103 -1.9826 0
M  V30 77 H -5.2856 -6.1930 -1.4440 0
M  V30 78 H -4.6071 -4.9471 0.6032 0
M  V30 79 C -0.6605 -0.3104 -6.6417 0
M  V30 80 C 0.3034 0.8930 -6.6120 0
M  V30 81 N -0.3349 -1.1678 -5.5459 0
M  V30 82 N 0.0355 1.6491 -5.4294 0
M  V30 83 C 0.0592 1.7844 -7.8327 0
M  V30 84 H 1.3380 0.5052 -6.6288 0
M  V30 85 C 0.2342 0.9996 -9.1270 0
M  V30 86 H 0.7554 2.6253 -7.7988 0
M  V30 87 H -0.9537 2.1855 -7.7686 0
M  V30 88 C -0.7164 -0.1925 -9.1566 0
M  V30 89 H 1.2645 0.6438 -9.2002 0
M  V30 90 H 0.0428 1.6531 -9.9806 0
M  V30 91 C -0.4794 -1.0889 -7.9475 0
M  V30 92 H -0.5689 -0.7671 -10.0732 0
M  V30 93 H -1.7482 0.1661 -9.1469 0
M  V30 94 H 0.5346 -1.4920 -7.9696 0
M  V30 95 H -1.1749 -1.9310 -7.9541 0
M  V30 96 H -1.6940 0.0749 -6.5719 0
M  V30 97 C 3.6152 -5.5142 -1.0813 0
M  V30 98 C 4.0055 -5.3296 0.3991 0
M  V30 99 N 2.2740 -5.0501 -1.2487 0
M  V30 100 N 4.0375 -3.9288 0.6796 0
M  V30 101 C 5.3990 -5.9138 0.6458 0
M  V30 102 H 3.2593 -5.8582 1.0198 0
M  V30 103 C 5.4489 -7.3887 0.2666 0
M  V30 104 H 5.6542 -5.7814 1.6994 0
M  V30 105 H 6.1193 -5.3472 0.0532 0
M  V30 106 C 5.0605 -7.5733 -1.1964 0
M  V30 107 H 4.7575 -7.9504 0.8991 0
M  V30 108 H 6.4543 -7.7777 0.4398 0
M  V30 109 C 3.6729 -6.9985 -1.4525 0
M  V30 110 H 5.0716 -8.6336 -1.4565 0
M  V30 111 H 5.7884 -7.0635 -1.8319 0
M  V30 112 H 2.9284 -7.5308 -0.8579 0
M  V30 113 H 3.4021 -7.1085 -2.5050 0
M  V30 114 H 4.3305 -4.9420 -1.6996 0
M  V30 115 C -3.9694 5.2614 1.0884 0
M  V30 116 C -3.6632 5.5727 -0.3906 0
M  V30 117 N -3.9861 3.8417 1.2495 0
M  V30 118 N -2.3338 5.1303 -0.6718 0
M  V30 119 C -3.7417 7.0827 -0.6308 0
M  V30 120 H -4.4124 5.0517 -1.0139 0
M  V30 121 C -5.1128 7.6269 -0.2494 0
M  V30 122 H -3.5306 7.2827 -1.6835 0
M  V30 123 H -2.9650 7.5663 -0.0358 0
M  V30 124 C -5.4183 7.3174 1.2122 0
M  V30 125 H -5.8751 7.1691 -0.8841 0
M  V30 126 H -5.1388 8.7054 -0.4177 0
M  V30 127 C -5.3470 5.8159 1.4616 0
M  V30 128 H -6.4125 7.6853 1.4736 0
M  V30 129 H -4.6926 7.8270 1.8502 0
M  V30 130 H -6.0995 5.2981 0.8644 0
M  V30 131 H -5.5423 5.5937 2.5130 0
M  V30 132 H -3.1895 5.7386 1.7090 0
M  V30 133 C -0.5400 -0.5452 6.6361 0
M  V30 134 C 0.9167 -0.0391 6.6165 0
M  V30 135 N -1.2334 0.0549 5.5403 0
M  V30 136 N 1.5448 -0.5384 5.4343 0
M  V30 137 C 1.6692 -0.5741 7.8380 0
M  V30 138 H 0.8974 1.0656 6.6391 0
M  V30 139 C 0.9816 -0.1545 9.1313 0
M  V30 140 H 2.6945 -0.1990 7.8112 0
M  V30 141 H 1.7089 -1.6626 7.7676 0
M  V30 142 C -0.4598 -0.6520 9.1508 0
M  V30 143 H 0.9905 0.9349 9.2111 0
M  V30 144 H 1.5294 -0.5584 9.9852 0
M  V30 145 C -1.2195 -0.1217 7.9412 0
M  V30 146 H -0.9566 -0.3264 10.0670 0
M  V30 147 H -0.4668 -1.7442 9.1346 0
M  V30 148 H -1.2605 0.9686 7.9695 0
M  V30 149 H -2.2457 -0.4957 7.9405 0
M  V30 150 H -0.5222 -1.6475 6.5600 0
M  V30 151 C 4.9926 4.4353 -0.1589 0
M  V30 152 C 5.8570 3.2064 0.1884 0
M  V30 153 N 3.9075 3.9976 -0.9792 0
M  V30 154 N 5.0767 2.3306 1.0046 0
M  V30 155 C 7.0924 3.6467 0.9787 0
M  V30 156 H 6.1656 2.7246 -0.7571 0
M  V30 157 C 7.9109 4.6633 0.1924 0
M  V30 158 H 7.6955 2.7656 1.2077 0
M  V30 159 H 6.7597 4.0799 1.9235 0
M  V30 160 C 7.0567 5.8779 -0.1543 0
M  V30 161 H 8.2764 4.2022 -0.7282 0
M  V30 162 H 8.7777 4.9700 0.7814 0
M  V30 163 C 5.8258 5.4514 -0.9447 0
M  V30 164 H 7.6394 6.5914 -0.7403 0
M  V30 165 H 6.7433 6.3755 0.7664 0
M  V30 166 H 6.1240 4.9941 -1.8898 0
M  V30 167 H 5.2003 6.3168 -1.1738 0
M  V30 168 H 4.6402 4.8862 0.7865 0
M  V30 END ATOM
M  V30 BEGIN BOND
M  V30 1 1 139 143
M  V30 2 1 160 165
M  V30 3 1 124 129
M  V30 4 1 139 144
M  V30 5 1 160 164
M  V30 6 1 124 128
M  V30 7 1 142 146
M  V30 8 1 157 162
M  V30 9 1 121 126
M  V30 10 1 139 142
M  V30 11 1 137 139
M  V30 12 1 157 160
M  V30 13 1 160 163
M  V30 14 1 121 124
M  V30 15 1 124 127
M  V30 16 1 145 148
M  V30 17 1 155 159
M  V30 18 1 119 123
M  V30 19 1 137 140
M  V30 20 1 134 138
M  V30 21 1 142 145
M  V30 22 1 142 147
M  V30 23 1 151 168
M  V30 24 1 127 131
M  V30 25 1 163 167
M  V30 26 1 115 132
M  V30 27 1 155 157
M  V30 28 1 157 161
M  V30 29 1 119 121
M  V30 30 1 121 125
M  V30 31 1 134 137
M  V30 32 1 137 141
M  V30 33 1 145 149
M  V30 34 1 133 145
M  V30 35 1 151 163
M  V30 36 1 163 166
M  V30 37 1 115 127
M  V30 38 1 127 130
M  V30 39 1 155 158
M  V30 40 1 152 155
M  V30 41 1 119 122
M  V30 42 1 116 119
M  V30 43 1 57 60
M  V30 44 1 27 30
M  V30 45 1 42 45
M  V30 46 1 133 134
M  V30 47 1 134 136
M  V30 48 1 151 152
M  V30 49 1 151 153
M  V30 50 1 115 116
M  V30 51 1 115 117
M  V30 52 1 51 53
M  V30 53 1 21 23
M  V30 54 1 36 38
M  V30 55 1 133 135
M  V30 56 1 133 150
M  V30 57 1 152 154
M  V30 58 1 152 156
M  V30 59 1 116 118
M  V30 60 1 116 120
M  V30 61 2 57 136
M  V30 62 1 49 57
M  V30 63 2 27 117
M  V30 64 1 19 27
M  V30 65 2 42 153
M  V30 66 1 34 42
M  V30 67 2 25 135
M  V30 68 2 55 154
M  V30 69 2 40 118
M  V30 70 2 49 51
M  V30 71 1 51 52
M  V30 72 2 19 21
M  V30 73 1 21 22
M  V30 74 2 34 36
M  V30 75 1 36 37
M  V30 76 1 48 49
M  V30 77 1 18 19
M  V30 78 1 33 34
M  V30 79 1 22 25
M  V30 80 1 25 28
M  V30 81 1 52 55
M  V30 82 1 55 58
M  V30 83 1 37 40
M  V30 84 1 40 43
M  V30 85 2 22 24
M  V30 86 2 52 54
M  V30 87 2 37 39
M  V30 88 1 48 50
M  V30 89 2 46 48
M  V30 90 1 18 20
M  V30 91 2 16 18
M  V30 92 1 33 35
M  V30 93 2 31 33
M  V30 94 1 46 54
M  V30 95 1 54 56
M  V30 96 1 16 24
M  V30 97 1 24 26
M  V30 98 1 31 39
M  V30 99 1 39 41
M  V30 100 1 46 47
M  V30 101 1 16 17
M  V30 102 1 31 32
M  V30 103 1 47 59
M  V30 104 2 47 100
M  V30 105 1 17 29
M  V30 106 2 17 64
M  V30 107 1 32 44
M  V30 108 2 32 82
M  V30 109 1 98 100
M  V30 110 1 62 64
M  V30 111 1 80 82
M  V30 112 1 101 104
M  V30 113 1 65 68
M  V30 114 1 83 86
M  V30 115 1 101 105
M  V30 116 1 65 69
M  V30 117 1 83 87
M  V30 118 1 98 101
M  V30 119 1 98 102
M  V30 120 1 97 98
M  V30 121 1 62 65
M  V30 122 1 62 66
M  V30 123 1 61 62
M  V30 124 1 80 83
M  V30 125 1 80 84
M  V30 126 1 79 80
M  V30 127 1 101 103
M  V30 128 1 65 67
M  V30 129 1 83 85
M  V30 130 1 2 14
M  V30 131 1 12 15
M  V30 132 1 10 13
M  V30 133 1 3 5
M  V30 134 1 3 4
M  V30 135 2 1 3
M  V30 136 2 4 6
M  V30 137 1 4 12
M  V30 138 1 1 9
M  V30 139 1 1 2
M  V30 140 1 6 7
M  V30 141 1 6 8
M  V30 142 2 7 9
M  V30 143 1 9 11
M  V30 144 1 7 10
M  V30 145 2 12 99
M  V30 146 2 2 63
M  V30 147 2 10 81
M  V30 148 1 97 114
M  V30 149 1 61 78
M  V30 150 1 79 96
M  V30 151 1 97 99
M  V30 152 1 61 63
M  V30 153 1 79 81
M  V30 154 1 97 109
M  V30 155 1 61 73
M  V30 156 1 79 91
M  V30 157 1 103 108
M  V30 158 1 103 107
M  V30 159 1 103 106
M  V30 160 1 67 72
M  V30 161 1 67 71
M  V30 162 1 67 70
M  V30 163 1 85 90
M  V30 164 1 85 89
M  V30 165 1 85 88
M  V30 166 1 106 111
M  V30 167 1 70 75
M  V30 168 1 106 109
M  V30 169 1 109 112
M  V30 170 1 109 113
M  V30 171 1 70 73
M  V30 172 1 73 76
M  V30 173 1 73 77
M  V30 174 1 88 93
M  V30 175 1 88 91
M  V30 176 1 91 94
M  V30 177 1 91 95
M  V30 178 1 106 110
M  V30 179 1 70 74
M  V30 180 1 88 92
M  V30 END BOND
M  V30 END CTAB
M  END

$$$$
