
     RDKit          3D

  0  0  0  0  0  0  0  0  0  0999 V3000
M  V30 BEGIN CTAB
M  V30 COUNTS 168 180 0 0 0
M  V30 BEGIN ATOM
M  V30 1 C 0.7846 3.8864 -1.8333 0
M  V30 2 C 2.0981 3.8478 -2.4605 0
M  V30 3 C 0.6630 4.2209 -0.4899 0
M  V30 4 C -0.5926 4.2990 0.1126 0
M  V30 5 H 1.5323 4.4404 0.1108 0
M  V30 6 C -1.7281 4.0287 -0.6416 0
M  V30 7 C -1.6217 3.6916 -1.9911 0
M  V30 8 H -2.7138 4.0870 -0.2059 0
M  V30 9 C -0.3640 3.6176 -2.5777 0
M  V30 10 C -2.8154 3.4486 -2.7888 0
M  V30 11 H -0.2494 3.3657 -3.6210 0
M  V30 12 C -0.7192 4.6893 1.5097 0
M  V30 13 H -2.6422 3.0421 -3.7974 0
M  V30 14 H 2.9575 3.9210 -1.7762 0
M  V30 15 H -1.7233 4.5798 1.9480 0
M  V30 16 C 2.7731 -0.6538 -3.2336 0
M  V30 17 C 2.8118 0.4604 -4.1700 0
M  V30 18 C 1.9477 -1.7440 -3.4818 0
M  V30 19 C 1.9304 -2.8354 -2.6132 0
M  V30 20 H 1.3153 -1.7768 -4.3557 0
M  V30 21 C 2.7416 -2.8208 -1.4849 0
M  V30 22 C 3.5752 -1.7336 -1.2226 0
M  V30 23 H 2.7553 -3.6526 -0.7973 0
M  V30 24 C 3.5820 -0.6534 -2.0970 0
M  V30 25 C 4.4534 -1.7394 -0.0611 0
M  V30 26 H 4.2206 0.1994 -1.9247 0
M  V30 27 C 1.0949 -3.9933 -2.8980 0
M  V30 28 H 4.9614 -0.7877 0.1597 0
M  V30 29 H 2.0375 0.4538 -4.9528 0
M  V30 30 H 1.0203 -4.7397 -2.0920 0
M  V30 31 C -4.3798 -0.5779 -1.1585 0
M  V30 32 C -5.0646 0.7021 -1.2704 0
M  V30 33 C -4.3224 -1.2324 0.0663 0
M  V30 34 C -3.7038 -2.4774 0.1790 0
M  V30 35 H -4.7658 -0.8004 0.9503 0
M  V30 36 C -3.1323 -3.0585 -0.9466 0
M  V30 37 C -3.1820 -2.4137 -2.1826 0
M  V30 38 H -2.6522 -4.0235 -0.8930 0
M  V30 39 C -3.8019 -1.1735 -2.2797 0
M  V30 40 C -2.6177 -3.0435 -3.3679 0
M  V30 41 H -3.8621 -0.6527 -3.2231 0
M  V30 42 C -3.6815 -3.1784 1.4551 0
M  V30 43 H -2.5595 -2.4087 -4.2655 0
M  V30 44 H -5.3563 1.1730 -0.3186 0
M  V30 45 H -3.0451 -4.0759 1.4972 0
M  V30 46 C 0.9506 1.0368 3.7868 0
M  V30 47 C 1.3541 2.4340 3.8591 0
M  V30 48 C 1.8931 0.0530 3.5126 0
M  V30 49 C 1.5274 -1.2926 3.4792 0
M  V30 50 H 2.9271 0.3058 3.3344 0
M  V30 51 C 0.2036 -1.6448 3.7132 0
M  V30 52 C -0.7537 -0.6683 3.9895 0
M  V30 53 H -0.1093 -2.6776 3.7004 0
M  V30 54 C -0.3745 0.6683 4.0197 0
M  V30 55 C -2.1314 -1.0440 4.2740 0
M  V30 56 H -1.0904 1.4462 4.2370 0
M  V30 57 C 2.5254 -2.3236 3.2320 0
M  V30 58 H -2.8525 -0.2136 4.3285 0
M  V30 59 H 2.3759 2.6549 3.5133 0
M  V30 60 H 2.1338 -3.3396 3.0685 0
M  V30 61 C 3.5419 3.7512 -4.2914 0
M  V30 62 C 3.7129 2.4223 -5.0550 0
M  V30 63 N 2.2363 3.7654 -3.7108 0
M  V30 64 N 3.6956 1.3566 -4.1032 0
M  V30 65 C 5.0597 2.4109 -5.7831 0
M  V30 66 H 2.8881 2.3368 -5.7856 0
M  V30 67 C 5.1728 3.5894 -6.7425 0
M  V30 68 H 5.1591 1.4673 -6.3238 0
M  V30 69 H 5.8546 2.4545 -5.0367 0
M  V30 70 C 5.0011 4.9042 -5.9894 0
M  V30 71 H 4.4007 3.5080 -7.5111 0
M  V30 72 H 6.1449 3.5657 -7.2390 0
M  V30 73 C 3.6615 4.9279 -5.2637 0
M  V30 74 H 5.0561 5.7444 -6.6845 0
M  V30 75 H 5.8100 5.0148 -5.2636 0
M  V30 76 H 2.8422 4.8652 -5.9819 0
M  V30 77 H 3.5465 5.8590 -4.7046 0
M  V30 78 H 4.3357 3.8122 -3.5251 0
M  V30 79 C -5.1160 3.4831 -3.1787 0
M  V30 80 C -6.0243 2.4674 -2.4565 0
M  V30 81 N -3.9695 3.7160 -2.3583 0
M  V30 82 N -5.3309 1.2198 -2.3884 0
M  V30 83 C -7.3176 2.2696 -3.2520 0
M  V30 84 H -6.2560 2.8665 -1.4525 0
M  V30 85 C -8.0507 3.5918 -3.4417 0
M  V30 86 H -7.9504 1.5546 -2.7217 0
M  V30 87 H -7.0627 1.8370 -4.2209 0
M  V30 88 C -7.1528 4.5983 -4.1532 0
M  V30 89 H -8.3407 3.9902 -2.4666 0
M  V30 90 H -8.9611 3.4261 -4.0213 0
M  V30 91 C -5.8636 4.8058 -3.3679 0
M  V30 92 H -7.6724 5.5523 -4.2631 0
M  V30 93 H -6.9142 4.2283 -5.1529 0
M  V30 94 H -6.0845 5.2198 -2.3825 0
M  V30 95 H -5.2087 5.5085 -3.8874 0
M  V30 96 H -4.8413 3.0605 -4.1622 0
M  V30 97 C 0.0877 5.5424 3.5266 0
M  V30 98 C 1.0305 4.6824 4.3922 0
M  V30 99 N 0.2553 5.1505 2.1626 0
M  V30 100 N 0.5895 3.3253 4.3171 0
M  V30 101 C 0.9618 5.1432 5.8506 0
M  V30 102 H 2.0588 4.8045 4.0059 0
M  V30 103 C 1.3271 6.6171 5.9764 0
M  V30 104 H 1.6411 4.5292 6.4457 0
M  V30 105 H -0.0519 4.9730 6.2177 0
M  V30 106 C 0.3973 7.4688 5.1188 0
M  V30 107 H 2.3590 6.7652 5.6497 0
M  V30 108 H 1.2585 6.9236 7.0221 0
M  V30 109 C 0.4607 7.0210 3.6638 0
M  V30 110 H 0.6795 8.5210 5.1909 0
M  V30 111 H -0.6269 7.3694 5.4857 0
M  V30 112 H 1.4693 7.1591 3.2702 0
M  V30 113 H -0.2221 7.6142 3.0515 0
M  V30 114 H -0.9471 5.3795 3.8789 0
M  V30 115 C -0.2763 -5.3006 -4.2608 0
M  V30 116 C -1.7175 -4.8387 -4.5571 0
M  V30 117 N 0.5194 -4.1407 -4.0098 0
M  V30 118 N -2.2481 -4.2487 -3.3686 0
M  V30 119 C -2.5816 -6.0440 -4.9374 0
M  V30 120 H -1.6827 -4.1194 -5.3953 0
M  V30 121 C -2.0025 -6.7737 -6.1431 0
M  V30 122 H -3.5947 -5.6968 -5.1514 0
M  V30 123 H -2.6322 -6.7155 -4.0785 0
M  V30 124 C -0.5763 -7.2287 -5.8528 0
M  V30 125 H -2.0010 -6.1047 -7.0068 0
M  V30 126 H -2.6287 -7.6346 -6.3859 0
M  V30 127 C 0.2940 -6.0357 -5.4769 0
M  V30 128 H -0.1560 -7.7272 -6.7285 0
M  V30 129 H -0.5851 -7.9464 -5.0292 0
M  V30 130 H 0.3495 -5.3321 -6.3093 0
M  V30 131 H 1.3102 -6.3621 -5.2456 0
M  V30 132 H -0.3048 -5.9789 -3.3888 0
M  V30 133 C 5.5241 -2.7520 1.7487 0
M  V30 134 C 4.7113 -3.1103 3.0094 0
M  V30 135 N 4.6392 -2.7790 0.6272 0
M  V30 136 N 3.7598 -2.0686 3.2355 0
M  V30 137 C 5.6433 -3.1981 4.2210 0
M  V30 138 H 4.2224 -4.0864 2.8376 0
M  V30 139 C 6.7434 -4.2272 3.9917 0
M  V30 140 H 5.0520 -3.4605 5.1010 0
M  V30 141 H 6.0787 -2.2120 4.3920 0
M  V30 142 C 7.5462 -3.8757 2.7438 0
M  V30 143 H 6.2963 -5.2163 3.8688 0
M  V30 144 H 7.4004 -4.2614 4.8632 0
M  V30 145 C 6.6287 -3.7897 1.5305 0
M  V30 146 H 8.3160 -4.6299 2.5683 0
M  V30 147 H 8.0445 -2.9148 2.8918 0
M  V30 148 H 6.1594 -4.7572 1.3429 0
M  V30 149 H 7.1978 -3.5151 0.6397 0
M  V30 150 H 5.9699 -1.7522 1.8994 0
M  V30 151 C -4.3407 -3.5190 3.6677 0
M  V30 152 C -3.8252 -2.5713 4.7696 0
M  V30 153 N -4.3720 -2.7939 2.4369 0
M  V30 154 N -2.4665 -2.2427 4.4731 0
M  V30 155 C -3.8770 -3.2765 6.1277 0
M  V30 156 H -4.4730 -1.6761 4.7840 0
M  V30 157 C -5.2922 -3.7404 6.4495 0
M  V30 158 H -3.5168 -2.5881 6.8951 0
M  V30 159 H -3.1977 -4.1301 6.0979 0
M  V30 160 C -5.8045 -4.6755 5.3594 0
M  V30 161 H -5.9518 -2.8725 6.5223 0
M  V30 162 H -5.3000 -4.2501 7.4151 0
M  V30 163 C -5.7610 -3.9821 4.0033 0
M  V30 164 H -6.8282 -4.9842 5.5804 0
M  V30 165 H -5.1819 -5.5727 5.3292 0
M  V30 166 H -6.4160 -3.1090 4.0048 0
M  V30 167 H -6.1053 -4.6579 3.2175 0
M  V30 168 H -3.6617 -4.3895 3.6174 0
M  V30 END ATOM
M  V30 BEGIN BOND
M  V30 1 1 139 143
M  V30 2 1 160 165
M  V30 3 1 124 129
M  V30 4 1 139 144
M  V30 5 1 160 164
M  V30 6 1 124 128
M  V30 7 1 142 146
M  V30 8 1 157 162
M  V30 9 1 121 126
M  V30 10 1 139 142
M  V30 11 1 137 139
M  V30 12 1 157 160
M  V30 13 1 160 163
M  V30 14 1 121 124
M  V30 15 1 124 127
M  V30 16 1 145 148
M  V30 17 1 155 159
M  V30 18 1 119 123
M  V30 19 1 137 140
M  V30 20 1 134 138
M  V30 21 1 142 145
M  V30 22 1 142 147
M  V30 23 1 151 168
M  V30 24 1 127 131
M  V30 25 1 163 167
M  V30 26 1 115 132
M  V30 27 1 155 157
M  V30 28 1 157 161
M  V30 29 1 119 121
M  V30 30 1 121 125
M  V30 31 1 134 137
M  V30 32 1 137 141
M  V30 33 1 145 149
M  V30 34 1 133 145
M  V30 35 1 151 163
M  V30 36 1 163 166
M  V30 37 1 115 127
M  V30 38 1 127 130
M  V30 39 1 155 158
M  V30 40 1 152 155
M  V30 41 1 119 122
M  V30 42 1 116 119
M  V30 43 1 57 60
M  V30 44 1 27 30
M  V30 45 1 42 45
M  V30 46 1 133 134
M  V30 47 1 134 136
M  V30 48 1 151 152
M  V30 49 1 151 153
M  V30 50 1 115 116
M  V30 51 1 115 117
M  V30 52 1 51 53
M  V30 53 1 21 23
M  V30 54 1 36 38
M  V30 55 1 133 135
M  V30 56 1 133 150
M  V30 57 1 152 154
M  V30 58 1 152 156
M  V30 59 1 116 118
M  V30 60 1 116 120
M  V30 61 2 57 136
M  V30 62 1 49 57
M  V30 63 2 27 117
M  V30 64 1 19 27
M  V30 65 2 42 153
M  V30 66 1 34 42
M  V30 67 2 25 135
M  V30 68 2 55 154
M  V30 69 2 40 118
M  V30 70 2 49 51
M  V30 71 1 51 52
M  V30 72 2 19 21
M  V30 73 1 21 22
M  V30 74 2 34 36
M  V30 75 1 36 37
M  V30 76 1 48 49
M  V30 77 1 18 19
M  V30 78 1 33 34
M  V30 79 1 22 25
M  V30 80 1 25 28
M  V30 81 1 52 55
M  V30 82 1 55 58
M  V30 83 1 37 40
M  V30 84 1 40 43
M  V30 85 2 22 24
M  V30 86 2 52 54
M  V30 87 2 37 39
M  V30 88 1 48 50
M  V30 89 2 46 48
M  V30 90 1 18 20
M  V30 91 2 16 18
M  V30 92 1 33 35
M  V30 93 2 31 33
M  V30 94 1 46 54
M  V30 95 1 54 56
M  V30 96 1 16 24
M  V30 97 1 24 26
M  V30 98 1 31 39
M  V30 99 1 39 41
M  V30 100 1 46 47
M  V30 101 1 16 17
M  V30 102 1 31 32
M  V30 103 1 47 59
M  V30 104 2 47 100
M  V30 105 1 17 29
M  V30 106 2 17 64
M  V30 107 1 32 44
M  V30 108 2 32 82
M  V30 109 1 98 100
M  V30 110 1 62 64
M  V30 111 1 80 82
M  V30 112 1 101 104
M  V30 113 1 65 68
M  V30 114 1 83 86
M  V30 115 1 101 105
M  V30 116 1 65 69
M  V30 117 1 83 87
M  V30 118 1 98 101
M  V30 119 1 98 102
M  V30 120 1 97 98
M  V30 121 1 62 65
M  V30 122 1 62 66
M  V30 123 1 61 62
M  V30 124 1 80 83
M  V30 125 1 80 84
M  V30 126 1 79 80
M  V30 127 1 101 103
M  V30 128 1 65 67
M  V30 129 1 83 85
M  V30 130 1 2 14
M  V30 131 1 12 15
M  V30 132 1 10 13
M  V30 133 1 3 5
M  V30 134 1 3 4
M  V30 135 2 1 3
M  V30 136 2 4 6
M  V30 137 1 4 12
M  V30 138 1 1 9
M  V30 139 1 1 2
M  V30 140 1 6 7
M  V30 141 1 6 8
M  V30 142 2 7 9
M  V30 143 1 9 11
M  V30 144 1 7 10
M  V30 145 2 12 99
M  V30 146 2 2 63
M  V30 147 2 10 81
M  V30 148 1 97 114
M  V30 149 1 61 78
M  V30 150 1 79 96
M  V30 151 1 97 99
M  V30 152 1 61 63
M  V30 153 1 79 81
M  V30 154 1 97 109
M  V30 155 1 61 73
M  V30 156 1 79 91
M  V30 157 1 103 108
M  V30 158 1 103 107
M  V30 159 1 103 106
M  V30 160 1 67 72
M  V30 161 1 67 71
M  V30 162 1 67 70
M  V30 163 1 85 90
M  V30 164 1 85 89
M  V30 165 1 85 88
M  V30 166 1 106 111
M  V30 167 1 70 75
M  V30 168 1 106 109
M  V30 169 1 109 112
M  V30 170 1 109 113
M  V30 171 1 70 73
M  V30 172 1 73 76
M  V30 173 1 73 77
M  V30 174 1 88 93
M  V30 175 1 88 91
M  V30 176 1 91 94
M  V30 177 1 91 95
M  V30 178 1 106 110
M  V30 179 1 70 74
M  V30 180 1 88 92
M  V30 END BOND
M  V30 END CTAB
M  END

$$$$
