
     RDKit          3D

  0  0  0  0  0  0  0  0  0  0999 V3000
M  V30 BEGIN CTAB
M  V30 COUNTS 168 180 0 0 0
M  V30 BEGIN ATOM
M  V30 1 C 2.7042 -3.1424 1.1662 0
M  V30 2 C 2.1395 -4.4445 0.8411 0
M  V30 3 C 2.4661 -2.5700 2.4100 0
M  V30 4 C 3.0332 -1.3411 2.7474 0
M  V30 5 H 1.8515 -3.0678 3.1443 0
M  V30 6 C 3.8350 -0.6838 1.8221 0
M  V30 7 C 4.0829 -1.2459 0.5697 0
M  V30 8 H 4.2931 0.2651 2.0558 0
M  V30 9 C 3.5110 -2.4709 0.2476 0
M  V30 10 C 4.9561 -0.5744 -0.3825 0
M  V30 11 H 3.6892 -2.9346 -0.7107 0
M  V30 12 C 2.8149 -0.7634 4.0661 0
M  V30 13 H 4.9785 -1.0036 -1.3963 0
M  V30 14 H 1.3963 -4.8352 1.5534 0
M  V30 15 H 3.1675 0.2711 4.1996 0
M  V30 16 C -1.0567 -3.4511 -2.3394 0
M  V30 17 C 0.0653 -4.3760 -2.4146 0
M  V30 18 C -1.2105 -2.4627 -3.3043 0
M  V30 19 C -2.3023 -1.5952 -3.2661 0
M  V30 20 H -0.4998 -2.3540 -4.1091 0
M  V30 21 C -3.2358 -1.7198 -2.2442 0
M  V30 22 C -3.0946 -2.7069 -1.2687 0
M  V30 23 H -4.0944 -1.0681 -2.1909 0
M  V30 24 C -2.0019 -3.5641 -1.3197 0
M  V30 25 C -4.0960 -2.8603 -0.2227 0
M  V30 26 H -1.8685 -4.3417 -0.5833 0
M  V30 27 C -2.4819 -0.5875 -4.3016 0
M  V30 28 H -3.8353 -3.5544 0.5914 0
M  V30 29 H 0.8428 -4.1251 -3.1528 0
M  V30 30 H -3.2762 0.1522 -4.1170 0
M  V30 31 C 2.4670 3.0807 -1.7101 0
M  V30 32 C 3.8063 3.0326 -1.1412 0
M  V30 33 C 1.4876 3.8708 -1.1199 0
M  V30 34 C 0.2118 3.9566 -1.6771 0
M  V30 35 H 1.6958 4.4442 -0.2296 0
M  V30 36 C -0.0788 3.2341 -2.8281 0
M  V30 37 C 0.8938 2.4368 -3.4317 0
M  V30 38 H -1.0544 3.2846 -3.2867 0
M  V30 39 C 2.1607 2.3612 -2.8652 0
M  V30 40 C 0.5980 1.7129 -4.6600 0
M  V30 41 H 2.9362 1.7582 -3.3123 0
M  V30 42 C -0.7992 4.8172 -1.0791 0
M  V30 43 H 1.3623 0.9905 -4.9857 0
M  V30 44 H 3.9226 3.5018 -0.1518 0
M  V30 45 H -1.8178 4.7117 -1.4836 0
M  V30 46 C -1.6254 0.4954 3.9509 0
M  V30 47 C -0.9349 -0.3708 4.8960 0
M  V30 48 C -2.7602 0.0406 3.2901 0
M  V30 49 C -3.4535 0.8735 2.4119 0
M  V30 50 H -3.1369 -0.9577 3.4519 0
M  V30 51 C -2.9932 2.1663 2.1925 0
M  V30 52 C -1.8553 2.6367 2.8484 0
M  V30 53 H -3.5111 2.8366 1.5239 0
M  V30 54 C -1.1750 1.7955 3.7207 0
M  V30 55 C -1.3991 4.0047 2.6471 0
M  V30 56 H -0.2955 2.1323 4.2479 0
M  V30 57 C -4.6652 0.4072 1.7527 0
M  V30 58 H -0.4147 4.2489 3.0758 0
M  V30 59 H -1.2587 -1.4232 4.9044 0
M  V30 60 H -5.0634 1.0632 0.9631 0
M  V30 61 C 1.9417 -6.3772 -0.4520 0
M  V30 62 C 1.2310 -6.3074 -1.8189 0
M  V30 63 N 2.5036 -5.0924 -0.1771 0
M  V30 64 N 0.1234 -5.4124 -1.6997 0
M  V30 65 C 0.7057 -7.6933 -2.2028 0
M  V30 66 H 1.9636 -5.9600 -2.5700 0
M  V30 67 C 1.8363 -8.7139 -2.2470 0
M  V30 68 H 0.2137 -7.6258 -3.1755 0
M  V30 69 H -0.0441 -7.9925 -1.4684 0
M  V30 70 C 2.5418 -8.7820 -0.8969 0
M  V30 71 H 2.5552 -8.4271 -3.0180 0
M  V30 72 H 1.4347 -9.6945 -2.5103 0
M  V30 73 C 3.0724 -7.4080 -0.5065 0
M  V30 74 H 3.3678 -9.4947 -0.9410 0
M  V30 75 H 1.8381 -9.1297 -0.1370 0
M  V30 76 H 3.8122 -7.0688 -1.2335 0
M  V30 77 H 3.5576 -7.4496 0.4710 0
M  V30 78 H 1.1965 -6.6736 0.3083 0
M  V30 79 C 6.5228 1.0370 -1.0111 0
M  V30 80 C 6.0789 2.5047 -1.1759 0
M  V30 81 N 5.6618 0.4170 -0.0539 0
M  V30 82 N 4.7742 2.5124 -1.7589 0
M  V30 83 C 7.0423 3.2366 -2.1142 0
M  V30 84 H 6.0885 2.9808 -0.1787 0
M  V30 85 C 8.4713 3.1730 -1.5891 0
M  V30 86 H 6.7170 4.2746 -2.2119 0
M  V30 87 H 6.9815 2.7725 -3.1000 0
M  V30 88 C 8.9108 1.7223 -1.4229 0
M  V30 89 H 8.5272 3.6818 -0.6240 0
M  V30 90 H 9.1392 3.6904 -2.2809 0
M  V30 91 C 7.9606 0.9849 -0.4875 0
M  V30 92 H 9.9253 1.6815 -1.0213 0
M  V30 93 H 8.9154 1.2306 -2.3984 0
M  V30 94 H 7.9815 1.4377 0.5053 0
M  V30 95 H 8.2598 -0.0604 -0.3853 0
M  V30 96 H 6.4628 0.5465 -1.9996 0
M  V30 97 C 2.1034 -0.8266 6.2879 0
M  V30 98 C 0.5940 -0.8102 6.6029 0
M  V30 99 N 2.2825 -1.4206 5.0006 0
M  V30 100 N -0.0451 0.0674 5.6738 0
M  V30 101 C 0.3647 -0.2791 8.0205 0
M  V30 102 H 0.2145 -1.8450 6.5216 0
M  V30 103 C 1.1094 -1.1227 9.0478 0
M  V30 104 H -0.7074 -0.2827 8.2281 0
M  V30 105 H 0.7100 0.7555 8.0602 0
M  V30 106 C 2.6020 -1.1423 8.7361 0
M  V30 107 H 0.7216 -2.1440 9.0296 0
M  V30 108 H 0.9401 -0.7169 10.0472 0
M  V30 109 C 2.8421 -1.6730 7.3282 0
M  V30 110 H 3.1278 -1.7694 9.4587 0
M  V30 111 H 3.0023 -0.1290 8.8161 0
M  V30 112 H 2.4885 -2.7024 7.2477 0
M  V30 113 H 3.9089 -1.6659 7.0940 0
M  V30 114 H 2.4723 0.2148 6.3172 0
M  V30 115 C -2.0071 0.4080 -6.3583 0
M  V30 116 C -0.7014 1.2099 -6.5323 0
M  V30 117 N -1.7884 -0.5849 -5.3543 0
M  V30 118 N -0.4546 1.9254 -5.3202 0
M  V30 119 C -0.8580 2.2159 -7.6757 0
M  V30 120 H 0.1112 0.4977 -6.7644 0
M  V30 121 C -1.2233 1.5126 -8.9771 0
M  V30 122 H 0.0777 2.7676 -7.7892 0
M  V30 123 H -1.6365 2.9299 -7.4013 0
M  V30 124 C -2.5128 0.7169 -8.8059 0
M  V30 125 H -0.4150 0.8360 -9.2641 0
M  V30 126 H -1.3413 2.2516 -9.7723 0
M  V30 127 C -2.3666 -0.2909 -7.6724 0
M  V30 128 H -2.7562 0.1933 -9.7325 0
M  V30 129 H -3.3341 1.4012 -8.5806 0
M  V30 130 H -1.5796 -1.0100 -7.9061 0
M  V30 131 H -3.2969 -0.8457 -7.5324 0
M  V30 132 H -2.8089 1.1135 -6.0742 0
M  V30 133 C -6.1683 -2.4472 0.7682 0
M  V30 134 C -6.4339 -1.0815 1.4336 0
M  V30 135 N -5.2016 -2.2565 -0.2666 0
M  V30 136 N -5.2344 -0.6659 2.0893 0
M  V30 137 C -7.5444 -1.2199 2.4787 0
M  V30 138 H -6.7427 -0.3696 0.6467 0
M  V30 139 C -8.8234 -1.7588 1.8500 0
M  V30 140 H -7.7239 -0.2427 2.9323 0
M  V30 141 H -7.1962 -1.8944 3.2630 0
M  V30 142 C -8.5616 -3.1079 1.1892 0
M  V30 143 H -9.1860 -1.0519 1.1002 0
M  V30 144 H -9.5941 -1.8600 2.6168 0
M  V30 145 C -7.4605 -2.9809 0.1438 0
M  V30 146 H -9.4741 -3.4778 0.7171 0
M  V30 147 H -8.2594 -3.8317 1.9496 0
M  V30 148 H -7.7687 -2.2953 -0.6476 0
M  V30 149 H -7.2548 -3.9507 -0.3144 0
M  V30 150 H -5.8087 -3.1447 1.5462 0
M  V30 151 C -1.5291 6.4919 0.3731 0
M  V30 152 C -1.6310 6.1979 1.8835 0
M  V30 153 N -0.5143 5.6492 -0.1761 0
M  V30 154 N -2.1034 4.8589 2.0446 0
M  V30 155 C -2.6333 7.1560 2.5330 0
M  V30 156 H -0.6298 6.3393 2.3297 0
M  V30 157 C -2.2303 8.6074 2.3033 0
M  V30 158 H -2.6854 6.9385 3.6019 0
M  V30 159 H -3.6185 6.9656 2.1039 0
M  V30 160 C -2.1264 8.8990 0.8102 0
M  V30 161 H -1.2644 8.7961 2.7778 0
M  V30 162 H -2.9661 9.2693 2.7645 0
M  V30 163 C -1.1280 7.9533 0.1541 0
M  V30 164 H -1.8116 9.9322 0.6508 0
M  V30 165 H -3.1073 8.7710 0.3466 0
M  V30 166 H -0.1326 8.1035 0.5759 0
M  V30 167 H -1.0694 8.1446 -0.9195 0
M  V30 168 H -2.5174 6.2993 -0.0822 0
M  V30 END ATOM
M  V30 BEGIN BOND
M  V30 1 1 139 143
M  V30 2 1 160 165
M  V30 3 1 124 129
M  V30 4 1 139 144
M  V30 5 1 160 164
M  V30 6 1 124 128
M  V30 7 1 142 146
M  V30 8 1 157 162
M  V30 9 1 121 126
M  V30 10 1 139 142
M  V30 11 1 137 139
M  V30 12 1 157 160
M  V30 13 1 160 163
M  V30 14 1 121 124
M  V30 15 1 124 127
M  V30 16 1 145 148
M  V30 17 1 155 159
M  V30 18 1 119 123
M  V30 19 1 137 140
M  V30 20 1 134 138
M  V30 21 1 142 145
M  V30 22 1 142 147
M  V30 23 1 151 168
M  V30 24 1 127 131
M  V30 25 1 163 167
M  V30 26 1 115 132
M  V30 27 1 155 157
M  V30 28 1 157 161
M  V30 29 1 119 121
M  V30 30 1 121 125
M  V30 31 1 134 137
M  V30 32 1 137 141
M  V30 33 1 145 149
M  V30 34 1 133 145
M  V30 35 1 151 163
M  V30 36 1 163 166
M  V30 37 1 115 127
M  V30 38 1 127 130
M  V30 39 1 155 158
M  V30 40 1 152 155
M  V30 41 1 119 122
M  V30 42 1 116 119
M  V30 43 1 57 60
M  V30 44 1 27 30
M  V30 45 1 42 45
M  V30 46 1 133 134
M  V30 47 1 134 136
M  V30 48 1 151 152
M  V30 49 1 151 153
M  V30 50 1 115 116
M  V30 51 1 115 117
M  V30 52 1 51 53
M  V30 53 1 21 23
M  V30 54 1 36 38
M  V30 55 1 133 135
M  V30 56 1 133 150
M  V30 57 1 152 154
M  V30 58 1 152 156
M  V30 59 1 116 118
M  V30 60 1 116 120
M  V30 61 2 57 136
M  V30 62 1 49 57
M  V30 63 2 27 117
M  V30 64 1 19 27
M  V30 65 2 42 153
M  V30 66 1 34 42
M  V30 67 2 25 135
M  V30 68 2 55 154
M  V30 69 2 40 118
M  V30 70 2 49 51
M  V30 71 1 51 52
M  V30 72 2 19 21
M  V30 73 1 21 22
M  V30 74 2 34 36
M  V30 75 1 36 37
M  V30 76 1 48 49
M  V30 77 1 18 19
M  V30 78 1 33 34
M  V30 79 1 22 25
M  V30 80 1 25 28
M  V30 81 1 52 55
M  V30 82 1 55 58
M  V30 83 1 37 40
M  V30 84 1 40 43
M  V30 85 2 22 24
M  V30 86 2 52 54
M  V30 87 2 37 39
M  V30 88 1 48 50
M  V30 89 2 46 48
M  V30 90 1 18 20
M  V30 91 2 16 18
M  V30 92 1 33 35
M  V30 93 2 31 33
M  V30 94 1 46 54
M  V30 95 1 54 56
M  V30 96 1 16 24
M  V30 97 1 24 26
M  V30 98 1 31 39
M  V30 99 1 39 41
M  V30 100 1 46 47
M  V30 101 1 16 17
M  V30 102 1 31 32
M  V30 103 1 47 59
M  V30 104 2 47 100
M  V30 105 1 17 29
M  V30 106 2 17 64
M  V30 107 1 32 44
M  V30 108 2 32 82
M  V30 109 1 98 100
M  V30 110 1 62 64
M  V30 111 1 80 82
M  V30 112 1 101 104
M  V30 113 1 65 68
M  V30 114 1 83 86
M  V30 115 1 101 105
M  V30 116 1 65 69
M  V30 117 1 83 87
M  V30 118 1 98 101
M  V30 119 1 98 102
M  V30 120 1 97 98
M  V30 121 1 62 65
M  V30 122 1 62 66
M  V30 123 1 61 62
M  V30 124 1 80 83
M  V30 125 1 80 84
M  V30 126 1 79 80
M  V30 127 1 101 103
M  V30 128 1 65 67
M  V30 129 1 83 85
M  V30 130 1 2 14
M  V30 131 1 12 15
M  V30 132 1 10 13
M  V30 133 1 3 5
M  V30 134 1 3 4
M  V30 135 2 1 3
M  V30 136 2 4 6
M  V30 137 1 4 12
M  V30 138 1 1 9
M  V30 139 1 1 2
M  V30 140 1 6 7
M  V30 141 1 6 8
M  V30 142 2 7 9
M  V30 143 1 9 11
M  V30 144 1 7 10
M  V30 145 2 12 99
M  V30 146 2 2 63
M  V30 147 2 10 81
M  V30 148 1 97 114
M  V30 149 1 61 78
M  V30 150 1 79 96
M  V30 151 1 97 99
M  V30 152 1 61 63
M  V30 153 1 79 81
M  V30 154 1 97 109
M  V30 155 1 61 73
M  V30 156 1 79 91
M  V30 157 1 103 108
M  V30 158 1 103 107
M  V30 159 1 103 106
M  V30 160 1 67 72
M  V30 161 1 67 71
M  V30 162 1 67 70
M  V30 163 1 85 90
M  V30 164 1 85 89
M  V30 165 1 85 88
M  V30 166 1 106 111
M  V30 167 1 70 75
M  V30 168 1 106 109
M  V30 169 1 109 112
M  V30 170 1 109 113
M  V30 171 1 70 73
M  V30 172 1 73 76
M  V30 173 1 73 77
M  V30 174 1 88 93
M  V30 175 1 88 91
M  V30 176 1 91 94
M  V30 177 1 91 95
M  V30 178 1 106 110
M  V30 179 1 70 74
M  V30 180 1 88 92
M  V30 END BOND
M  V30 END CTAB
M  END

$$$$
