
     RDKit          3D

  0  0  0  0  0  0  0  0  0  0999 V3000
M  V30 BEGIN CTAB
M  V30 COUNTS 168 180 0 0 0
M  V30 BEGIN ATOM
M  V30 1 C -0.1150 -0.1943 4.2379 0
M  V30 2 C -1.4801 -0.2932 4.7345 0
M  V30 3 C 0.5287 1.0371 4.2082 0
M  V30 4 C 1.8494 1.1386 3.7712 0
M  V30 5 H 0.0282 1.9358 4.5346 0
M  V30 6 C 2.5187 -0.0054 3.3533 0
M  V30 7 C 1.8856 -1.2482 3.3774 0
M  V30 8 H 3.5428 0.0397 3.0158 0
M  V30 9 C 0.5695 -1.3340 3.8154 0
M  V30 10 C 2.6023 -2.4510 2.9775 0
M  V30 11 H 0.0546 -2.2818 3.8518 0
M  V30 12 C 2.5342 2.4237 3.7796 0
M  V30 13 H 1.9913 -3.3618 2.8800 0
M  V30 14 H -1.9985 0.6635 4.9031 0
M  V30 15 H 3.5153 2.4464 3.2803 0
M  V30 16 C -3.9258 -1.2392 0.9342 0
M  V30 17 C -3.8516 -1.9706 2.1910 0
M  V30 18 C -3.6661 -1.8893 -0.2663 0
M  V30 19 C -3.7719 -1.2104 -1.4802 0
M  V30 20 H -3.3920 -2.9330 -0.2870 0
M  V30 21 C -4.1310 0.1322 -1.4807 0
M  V30 22 C -4.3946 0.7981 -0.2837 0
M  V30 23 H -4.2275 0.6832 -2.4036 0
M  V30 24 C -4.2853 0.1086 0.9181 0
M  V30 25 C -4.8097 2.1937 -0.2906 0
M  V30 26 H -4.4889 0.5943 1.8601 0
M  V30 27 C -3.5389 -1.9053 -2.7383 0
M  V30 28 H -4.8479 2.6867 0.6932 0
M  V30 29 H -3.4150 -2.9796 2.1318 0
M  V30 30 H -3.4903 -1.2684 -3.6351 0
M  V30 31 C 3.0448 -1.9530 -1.5913 0
M  V30 32 C 4.0713 -2.1719 -0.5822 0
M  V30 33 C 3.1401 -0.8709 -2.4583 0
M  V30 34 C 2.1846 -0.6717 -3.4547 0
M  V30 35 H 3.9595 -0.1719 -2.3893 0
M  V30 36 C 1.1240 -1.5624 -3.5694 0
M  V30 37 C 1.0150 -2.6530 -2.7064 0
M  V30 38 H 0.3723 -1.4391 -4.3339 0
M  V30 39 C 1.9747 -2.8388 -1.7184 0
M  V30 40 C -0.0752 -3.6068 -2.8549 0
M  V30 41 H 1.9214 -3.6764 -1.0399 0
M  V30 42 C 2.3100 0.4398 -4.3870 0
M  V30 43 H -0.1778 -4.3463 -2.0457 0
M  V30 44 H 4.7920 -1.3505 -0.4474 0
M  V30 45 H 1.4413 0.6174 -5.0398 0
M  V30 46 C 0.4628 4.7516 0.3730 0
M  V30 47 C 0.6300 5.1165 1.7727 0
M  V30 48 C -0.8044 4.7409 -0.1973 0
M  V30 49 C -0.9743 4.4313 -1.5468 0
M  V30 50 H -1.6798 4.9847 0.3849 0
M  V30 51 C 0.1381 4.1215 -2.3199 0
M  V30 52 C 1.4164 4.1280 -1.7613 0
M  V30 53 H 0.0400 3.8839 -3.3681 0
M  V30 54 C 1.5703 4.4386 -0.4154 0
M  V30 55 C 2.5836 3.8424 -2.5837 0
M  V30 56 H 2.5466 4.4583 0.0441 0
M  V30 57 C -2.2990 4.4609 -2.1505 0
M  V30 58 H 3.5327 3.7157 -2.0401 0
M  V30 59 H -0.2980 5.1977 2.3597 0
M  V30 60 H -2.3685 4.0570 -3.1724 0
M  V30 61 C -3.3544 -1.4616 5.4882 0
M  V30 62 C -4.2176 -2.2456 4.4790 0
M  V30 63 N -2.0193 -1.4054 4.9818 0
M  V30 64 N -4.2884 -1.4871 3.2700 0
M  V30 65 C -5.6337 -2.4225 5.0335 0
M  V30 66 H -3.7484 -3.2335 4.3198 0
M  V30 67 C -5.6092 -3.1406 6.3773 0
M  V30 68 H -6.2268 -2.9860 4.3100 0
M  V30 69 H -6.0866 -1.4354 5.1415 0
M  V30 70 C -4.7537 -2.3681 7.3755 0
M  V30 71 H -5.1968 -4.1438 6.2461 0
M  V30 72 H -6.6279 -3.2431 6.7566 0
M  V30 73 C -3.3402 -2.1895 6.8352 0
M  V30 74 H -4.7171 -2.8998 8.3285 0
M  V30 75 H -5.2013 -1.3877 7.5545 0
M  V30 76 H -2.8640 -3.1615 6.6957 0
M  V30 77 H -2.7322 -1.6161 7.5382 0
M  V30 78 H -3.7939 -0.4547 5.6075 0
M  V30 79 C 4.5198 -3.6557 2.4137 0
M  V30 80 C 5.1802 -3.4325 1.0381 0
M  V30 81 N 3.8480 -2.4505 2.7851 0
M  V30 82 N 4.1442 -3.2472 0.0716 0
M  V30 83 C 6.0016 -4.6650 0.6500 0
M  V30 84 H 5.8387 -2.5481 1.1124 0
M  V30 85 C 7.0616 -4.9692 1.7015 0
M  V30 86 H 6.4675 -4.4853 -0.3213 0
M  V30 87 H 5.3216 -5.5120 0.5436 0
M  V30 88 C 6.4103 -5.1874 3.0630 0
M  V30 89 H 7.7621 -4.1332 1.7642 0
M  V30 90 H 7.6243 -5.8578 1.4081 0
M  V30 91 C 5.5929 -3.9647 3.4611 0
M  V30 92 H 7.1753 -5.3786 3.8183 0
M  V30 93 H 5.7575 -6.0621 3.0168 0
M  V30 94 H 6.2414 -3.0921 3.5566 0
M  V30 95 H 5.1065 -4.1278 4.4252 0
M  V30 96 H 3.8214 -4.5077 2.3257 0
M  V30 97 C 2.7548 4.6747 4.3548 0
M  V30 98 C 1.8852 5.7298 3.6416 0
M  V30 99 N 2.0436 3.4352 4.3495 0
M  V30 100 N 1.7646 5.3528 2.2686 0
M  V30 101 C 2.5632 7.1003 3.7188 0
M  V30 102 H 0.9034 5.7653 4.1479 0
M  V30 103 C 2.8081 7.5088 5.1661 0
M  V30 104 H 1.9299 7.8346 3.2165 0
M  V30 105 H 3.5089 7.0472 3.1766 0
M  V30 106 C 3.6657 6.4650 5.8736 0
M  V30 107 H 1.8509 7.6035 5.6842 0
M  V30 108 H 3.3027 8.4818 5.1936 0
M  V30 109 C 2.9981 5.0971 5.8062 0
M  V30 110 H 3.8162 6.7482 6.9173 0
M  V30 111 H 4.6459 6.4155 5.3940 0
M  V30 112 H 2.0371 5.1203 6.3232 0
M  V30 113 H 3.6217 4.3433 6.2919 0
M  V30 114 H 3.7171 4.6011 3.8164 0
M  V30 115 C -3.2222 -3.8090 -4.0505 0
M  V30 116 C -1.8795 -4.5647 -3.9835 0
M  V30 117 N -3.4299 -3.1598 -2.7947 0
M  V30 118 N -0.8323 -3.5999 -3.8627 0
M  V30 119 C -1.6680 -5.3634 -5.2726 0
M  V30 120 H -1.9129 -5.2490 -3.1165 0
M  V30 121 C -2.8133 -6.3412 -5.5045 0
M  V30 122 H -0.7179 -5.8975 -5.2032 0
M  V30 123 H -1.5973 -4.6608 -6.1047 0
M  V30 124 C -4.1421 -5.5957 -5.5682 0
M  V30 125 H -2.8432 -7.0666 -4.6883 0
M  V30 126 H -2.6453 -6.8883 -6.4344 0
M  V30 127 C -4.3649 -4.8002 -4.2879 0
M  V30 128 H -4.9624 -6.3026 -5.7077 0
M  V30 129 H -4.1357 -4.9152 -6.4228 0
M  V30 130 H -4.4202 -5.4731 -3.4304 0
M  V30 131 H -5.3049 -4.2467 -4.3408 0
M  V30 132 H -3.1693 -3.0869 -4.8854 0
M  V30 133 C -5.5535 4.1513 -1.3209 0
M  V30 134 C -4.5747 4.9774 -2.1799 0
M  V30 135 N -5.1318 2.7865 -1.3553 0
M  V30 136 N -3.2937 4.9466 -1.5477 0
M  V30 137 C -5.0509 6.4305 -2.2582 0
M  V30 138 H -4.5468 4.5341 -3.1919 0
M  V30 139 C -6.4592 6.5144 -2.8339 0
M  V30 140 H -4.3511 6.9968 -2.8765 0
M  V30 141 H -5.0284 6.8543 -1.2528 0
M  V30 142 C -7.4277 5.6958 -1.9870 0
M  V30 143 H -6.4577 6.1303 -3.8566 0
M  V30 144 H -6.7797 7.5577 -2.8674 0
M  V30 145 C -6.9654 4.2463 -1.9057 0
M  V30 146 H -8.4301 5.7371 -2.4180 0
M  V30 147 H -7.4767 6.1189 -0.9810 0
M  V30 148 H -6.9566 3.7966 -2.9001 0
M  V30 149 H -7.6447 3.6631 -1.2803 0
M  V30 150 H -5.5414 4.5618 -0.2949 0
M  V30 151 C 3.4552 2.2033 -5.3993 0
M  V30 152 C 3.6824 3.5122 -4.6160 0
M  V30 153 N 3.3604 1.1328 -4.4577 0
M  V30 154 N 2.5113 3.7746 -3.8403 0
M  V30 155 C 3.8970 4.6716 -5.5927 0
M  V30 156 H 4.5778 3.3823 -3.9815 0
M  V30 157 C 5.0771 4.3973 -6.5166 0
M  V30 158 H 4.0644 5.5867 -5.0206 0
M  V30 159 H 2.9840 4.8034 -6.1759 0
M  V30 160 C 4.8553 3.1019 -7.2899 0
M  V30 161 H 5.9912 4.3140 -5.9241 0
M  V30 162 H 5.2012 5.2315 -7.2101 0
M  V30 163 C 4.6444 1.9399 -6.3270 0
M  V30 164 H 5.7150 2.8955 -7.9305 0
M  V30 165 H 3.9765 3.2077 -7.9302 0
M  V30 166 H 5.5342 1.7931 -5.7123 0
M  V30 167 H 4.4619 1.0151 -6.8786 0
M  V30 168 H 2.5301 2.3142 -5.9935 0
M  V30 END ATOM
M  V30 BEGIN BOND
M  V30 1 1 139 143
M  V30 2 1 160 165
M  V30 3 1 124 129
M  V30 4 1 139 144
M  V30 5 1 160 164
M  V30 6 1 124 128
M  V30 7 1 142 146
M  V30 8 1 157 162
M  V30 9 1 121 126
M  V30 10 1 139 142
M  V30 11 1 137 139
M  V30 12 1 157 160
M  V30 13 1 160 163
M  V30 14 1 121 124
M  V30 15 1 124 127
M  V30 16 1 145 148
M  V30 17 1 155 159
M  V30 18 1 119 123
M  V30 19 1 137 140
M  V30 20 1 134 138
M  V30 21 1 142 145
M  V30 22 1 142 147
M  V30 23 1 151 168
M  V30 24 1 127 131
M  V30 25 1 163 167
M  V30 26 1 115 132
M  V30 27 1 155 157
M  V30 28 1 157 161
M  V30 29 1 119 121
M  V30 30 1 121 125
M  V30 31 1 134 137
M  V30 32 1 137 141
M  V30 33 1 145 149
M  V30 34 1 133 145
M  V30 35 1 151 163
M  V30 36 1 163 166
M  V30 37 1 115 127
M  V30 38 1 127 130
M  V30 39 1 155 158
M  V30 40 1 152 155
M  V30 41 1 119 122
M  V30 42 1 116 119
M  V30 43 1 57 60
M  V30 44 1 27 30
M  V30 45 1 42 45
M  V30 46 1 133 134
M  V30 47 1 134 136
M  V30 48 1 151 152
M  V30 49 1 151 153
M  V30 50 1 115 116
M  V30 51 1 115 117
M  V30 52 1 51 53
M  V30 53 1 21 23
M  V30 54 1 36 38
M  V30 55 1 133 135
M  V30 56 1 133 150
M  V30 57 1 152 154
M  V30 58 1 152 156
M  V30 59 1 116 118
M  V30 60 1 116 120
M  V30 61 2 57 136
M  V30 62 1 49 57
M  V30 63 2 27 117
M  V30 64 1 19 27
M  V30 65 2 42 153
M  V30 66 1 34 42
M  V30 67 2 25 135
M  V30 68 2 55 154
M  V30 69 2 40 118
M  V30 70 2 49 51
M  V30 71 1 51 52
M  V30 72 2 19 21
M  V30 73 1 21 22
M  V30 74 2 34 36
M  V30 75 1 36 37
M  V30 76 1 48 49
M  V30 77 1 18 19
M  V30 78 1 33 34
M  V30 79 1 22 25
M  V30 80 1 25 28
M  V30 81 1 52 55
M  V30 82 1 55 58
M  V30 83 1 37 40
M  V30 84 1 40 43
M  V30 85 2 22 24
M  V30 86 2 52 54
M  V30 87 2 37 39
M  V30 88 1 48 50
M  V30 89 2 46 48
M  V30 90 1 18 20
M  V30 91 2 16 18
M  V30 92 1 33 35
M  V30 93 2 31 33
M  V30 94 1 46 54
M  V30 95 1 54 56
M  V30 96 1 16 24
M  V30 97 1 24 26
M  V30 98 1 31 39
M  V30 99 1 39 41
M  V30 100 1 46 47
M  V30 101 1 16 17
M  V30 102 1 31 32
M  V30 103 1 47 59
M  V30 104 2 47 100
M  V30 105 1 17 29
M  V30 106 2 17 64
M  V30 107 1 32 44
M  V30 108 2 32 82
M  V30 109 1 98 100
M  V30 110 1 62 64
M  V30 111 1 80 82
M  V30 112 1 101 104
M  V30 113 1 65 68
M  V30 114 1 83 86
M  V30 115 1 101 105
M  V30 116 1 65 69
M  V30 117 1 83 87
M  V30 118 1 98 101
M  V30 119 1 98 102
M  V30 120 1 97 98
M  V30 121 1 62 65
M  V30 122 1 62 66
M  V30 123 1 61 62
M  V30 124 1 80 83
M  V30 125 1 80 84
M  V30 126 1 79 80
M  V30 127 1 101 103
M  V30 128 1 65 67
M  V30 129 1 83 85
M  V30 130 1 2 14
M  V30 131 1 12 15
M  V30 132 1 10 13
M  V30 133 1 3 5
M  V30 134 1 3 4
M  V30 135 2 1 3
M  V30 136 2 4 6
M  V30 137 1 4 12
M  V30 138 1 1 9
M  V30 139 1 1 2
M  V30 140 1 6 7
M  V30 141 1 6 8
M  V30 142 2 7 9
M  V30 143 1 9 11
M  V30 144 1 7 10
M  V30 145 2 12 99
M  V30 146 2 2 63
M  V30 147 2 10 81
M  V30 148 1 97 114
M  V30 149 1 61 78
M  V30 150 1 79 96
M  V30 151 1 97 99
M  V30 152 1 61 63
M  V30 153 1 79 81
M  V30 154 1 97 109
M  V30 155 1 61 73
M  V30 156 1 79 91
M  V30 157 1 103 108
M  V30 158 1 103 107
M  V30 159 1 103 106
M  V30 160 1 67 72
M  V30 161 1 67 71
M  V30 162 1 67 70
M  V30 163 1 85 90
M  V30 164 1 85 89
M  V30 165 1 85 88
M  V30 166 1 106 111
M  V30 167 1 70 75
M  V30 168 1 106 109
M  V30 169 1 109 112
M  V30 170 1 109 113
M  V30 171 1 70 73
M  V30 172 1 73 76
M  V30 173 1 73 77
M  V30 174 1 88 93
M  V30 175 1 88 91
M  V30 176 1 91 94
M  V30 177 1 91 95
M  V30 178 1 106 110
M  V30 179 1 70 74
M  V30 180 1 88 92
M  V30 END BOND
M  V30 END CTAB
M  END

$$$$
