
     RDKit          3D

  0  0  0  0  0  0  0  0  0  0999 V3000
M  V30 BEGIN CTAB
M  V30 COUNTS 168 180 0 0 0
M  V30 BEGIN ATOM
M  V30 1 C 0.5371 -1.2234 4.3391 0
M  V30 2 C -0.6582 -1.9255 4.7843 0
M  V30 3 C 0.6477 0.1499 4.5213 0
M  V30 4 C 1.8038 0.8277 4.1343 0
M  V30 5 H -0.1488 0.7177 4.9773 0
M  V30 6 C 2.8471 0.1177 3.5522 0
M  V30 7 C 2.7505 -1.2609 3.3629 0
M  V30 8 H 3.7568 0.6126 3.2481 0
M  V30 9 C 1.5925 -1.9227 3.7535 0
M  V30 10 C 3.8612 -2.0082 2.7901 0
M  V30 11 H 1.4902 -2.9895 3.6261 0
M  V30 12 C 1.9329 2.2598 4.3637 0
M  V30 13 H 3.6501 -3.0583 2.5346 0
M  V30 14 H -1.5007 -1.2875 5.0936 0
M  V30 15 H 2.8046 2.7427 3.8954 0
M  V30 16 C -2.7054 -3.1482 0.8306 0
M  V30 17 C -2.2969 -3.9785 1.9548 0
M  V30 18 C -2.2656 -3.4486 -0.4531 0
M  V30 19 C -2.6809 -2.6850 -1.5441 0
M  V30 20 H -1.6074 -4.2843 -0.6355 0
M  V30 21 C -3.5346 -1.6083 -1.3363 0
M  V30 22 C -3.9843 -1.2946 -0.0536 0
M  V30 23 H -3.8787 -1.0024 -2.1605 0
M  V30 24 C -3.5623 -2.0646 1.0236 0
M  V30 25 C -4.9106 -0.1907 0.1551 0
M  V30 26 H -3.8977 -1.8510 2.0270 0
M  V30 27 C -2.2507 -3.0274 -2.8923 0
M  V30 28 H -5.0949 0.0877 1.2043 0
M  V30 29 H -1.5044 -4.7131 1.7433 0
M  V30 30 H -2.4936 -2.2909 -3.6738 0
M  V30 31 C 3.8738 -0.6701 -1.6289 0
M  V30 32 C 4.9476 -0.6240 -0.6466 0
M  V30 33 C 3.5016 0.4836 -2.3084 0
M  V30 34 C 2.5014 0.4454 -3.2799 0
M  V30 35 H 3.9858 1.4277 -2.1107 0
M  V30 36 C 1.8682 -0.7598 -3.5586 0
M  V30 37 C 2.2310 -1.9261 -2.8847 0
M  V30 38 H 1.0952 -0.8231 -4.3091 0
M  V30 39 C 3.2294 -1.8727 -1.9193 0
M  V30 40 C 1.5936 -3.1949 -3.2076 0
M  V30 41 H 3.5367 -2.7590 -1.3855 0
M  V30 42 C 2.1425 1.6479 -4.0185 0
M  V30 43 H 1.8231 -4.0319 -2.5301 0
M  V30 44 H 5.2962 0.3822 -0.3663 0
M  V30 45 H 1.2457 1.5705 -4.6525 0
M  V30 46 C -1.0292 4.0908 1.3326 0
M  V30 47 C -0.9564 4.2686 2.7759 0
M  V30 48 C -2.2157 3.6735 0.7413 0
M  V30 49 C -2.3103 3.5369 -0.6437 0
M  V30 50 H -3.0904 3.4607 1.3364 0
M  V30 51 C -1.2002 3.8126 -1.4329 0
M  V30 52 C -0.0025 4.2321 -0.8536 0
M  V30 53 H -1.2437 3.7223 -2.5075 0
M  V30 54 C 0.0769 4.3639 0.5277 0
M  V30 55 C 1.1464 4.5588 -1.6864 0
M  V30 56 H 0.9873 4.6926 1.0050 0
M  V30 57 C -3.5668 3.1389 -1.2627 0
M  V30 58 H 2.0927 4.7310 -1.1502 0
M  V30 59 H -1.8160 3.8870 3.3485 0
M  V30 60 H -3.5180 2.9050 -2.3375 0
M  V30 61 C -1.8936 -3.8369 5.3006 0
M  V30 62 C -2.4261 -4.7284 4.1605 0
M  V30 63 N -0.7097 -3.1838 4.8382 0
M  V30 64 N -2.8399 -3.8797 3.0879 0
M  V30 65 C -3.6353 -5.5302 4.6493 0
M  V30 66 H -1.6163 -5.4155 3.8545 0
M  V30 67 C -3.2740 -6.3815 5.8603 0
M  V30 68 H -3.9928 -6.1606 3.8322 0
M  V30 69 H -4.4321 -4.8295 4.9049 0
M  V30 70 C -2.7445 -5.5017 6.9877 0
M  V30 71 H -2.5093 -7.1090 5.5784 0
M  V30 72 H -4.1544 -6.9328 6.1966 0
M  V30 73 C -1.5377 -4.7016 6.5131 0
M  V30 74 H -2.4618 -6.1182 7.8434 0
M  V30 75 H -3.5307 -4.8161 7.3124 0
M  V30 76 H -0.7268 -5.3746 6.2293 0
M  V30 77 H -1.1713 -4.0532 7.3118 0
M  V30 78 H -2.6852 -3.1148 5.5709 0
M  V30 79 C 6.0699 -2.2613 2.0806 0
M  V30 80 C 6.5301 -1.5854 0.7731 0
M  V30 81 N 4.9984 -1.4896 2.6267 0
M  V30 82 N 5.4626 -1.6724 -0.1728 0
M  V30 83 C 7.7492 -2.3205 0.2094 0
M  V30 84 H 6.7943 -0.5371 1.0025 0
M  V30 85 C 8.8889 -2.3452 1.2204 0
M  V30 86 H 8.0651 -1.8234 -0.7103 0
M  V30 87 H 7.4494 -3.3383 -0.0461 0
M  V30 88 C 8.4346 -3.0107 2.5151 0
M  V30 89 H 9.2100 -1.3225 1.4316 0
M  V30 90 H 9.7401 -2.8846 0.8001 0
M  V30 91 C 7.2234 -2.2845 3.0872 0
M  V30 92 H 9.2458 -3.0022 3.2459 0
M  V30 93 H 8.1732 -4.0523 2.3151 0
M  V30 94 H 7.4838 -1.2541 3.3355 0
M  V30 95 H 6.8818 -2.7735 4.0021 0
M  V30 96 H 5.7560 -3.2937 1.8421 0
M  V30 97 C 1.2833 4.2974 5.2978 0
M  V30 98 C 0.0408 5.0247 4.7452 0
M  V30 99 N 1.1123 2.8958 5.0783 0
M  V30 100 N 0.0167 4.8499 3.3272 0
M  V30 101 C 0.1335 6.5210 5.0560 0
M  V30 102 H -0.8539 4.5933 5.2298 0
M  V30 103 C 0.2628 6.7614 6.5551 0
M  V30 104 H -0.7574 7.0171 4.6651 0
M  V30 105 H 1.0003 6.9280 4.5324 0
M  V30 106 C 1.4896 6.0405 7.1035 0
M  V30 107 H -0.6319 6.3914 7.0612 0
M  V30 108 H 0.3396 7.8331 6.7490 0
M  V30 109 C 1.4060 4.5492 6.8030 0
M  V30 110 H 1.5633 6.1934 8.1821 0
M  V30 111 H 2.3895 6.4545 6.6430 0
M  V30 112 H 0.5357 4.1130 7.2966 0
M  V30 113 H 2.2948 4.0343 7.1743 0
M  V30 114 H 2.1736 4.6918 4.7750 0
M  V30 115 C -1.2745 -4.4246 -4.4864 0
M  V30 116 C 0.2580 -4.5941 -4.5134 0
M  V30 117 N -1.6637 -4.1134 -3.1473 0
M  V30 118 N 0.8504 -3.3279 -4.2170 0
M  V30 119 C 0.7076 -5.0342 -5.9093 0
M  V30 120 H 0.5321 -5.3630 -3.7685 0
M  V30 121 C 0.0252 -6.3334 -6.3196 0
M  V30 122 H 1.7928 -5.1571 -5.9066 0
M  V30 123 H 0.4622 -4.2396 -6.6160 0
M  V30 124 C -1.4905 -6.1681 -6.2906 0
M  V30 125 H 0.3163 -7.1302 -5.6313 0
M  V30 126 H 0.3523 -6.6185 -7.3216 0
M  V30 127 C -1.9495 -5.7340 -4.9041 0
M  V30 128 H -1.9755 -7.1087 -6.5593 0
M  V30 129 H -1.7873 -5.4152 -7.0245 0
M  V30 130 H -1.7004 -6.4996 -4.1673 0
M  V30 131 H -3.0323 -5.5922 -4.8872 0
M  V30 132 H -1.5440 -3.6188 -5.1930 0
M  V30 133 C -6.4033 1.4536 -0.5626 0
M  V30 134 C -5.8626 2.7202 -1.2569 0
M  V30 135 N -5.4847 0.3867 -0.8071 0
M  V30 136 N -4.6447 3.0955 -0.6109 0
M  V30 137 C -6.8707 3.8634 -1.1106 0
M  V30 138 H -5.7085 2.4872 -2.3261 0
M  V30 139 C -8.2240 3.4776 -1.6950 0
M  V30 140 H -6.4749 4.7476 -1.6148 0
M  V30 141 H -6.9712 4.0995 -0.0498 0
M  V30 142 C -8.7586 2.2237 -1.0113 0
M  V30 143 H -8.1176 3.2895 -2.7658 0
M  V30 144 H -8.9271 4.3032 -1.5671 0
M  V30 145 C -7.7645 1.0778 -1.1543 0
M  V30 146 H -9.7155 1.9357 -1.4512 0
M  V30 147 H -8.9245 2.4311 0.0484 0
M  V30 148 H -7.6247 0.8288 -2.2077 0
M  V30 149 H -8.1346 0.1853 -0.6453 0
M  V30 150 H -6.5072 1.6704 0.5160 0
M  V30 151 C 2.4640 3.8536 -4.7097 0
M  V30 152 C 2.1968 5.0071 -3.7216 0
M  V30 153 N 2.8354 2.6989 -3.9546 0
M  V30 154 N 1.0514 4.6652 -2.9387 0
M  V30 155 C 1.8994 6.2950 -4.4945 0
M  V30 156 H 3.0989 5.1411 -3.0974 0
M  V30 157 C 3.0514 6.6528 -5.4253 0
M  V30 158 H 1.7216 7.1010 -3.7793 0
M  V30 159 H 0.9826 6.1478 -5.0681 0
M  V30 160 C 3.3186 5.5121 -6.4012 0
M  V30 161 H 3.9506 6.8430 -4.8346 0
M  V30 162 H 2.8098 7.5661 -5.9729 0
M  V30 163 C 3.6199 4.2255 -5.6424 0
M  V30 164 H 4.1617 5.7617 -7.0484 0
M  V30 165 H 2.4409 5.3636 -7.0346 0
M  V30 166 H 4.5225 4.3451 -5.0405 0
M  V30 167 H 3.7884 3.4016 -6.3392 0
M  V30 168 H 1.5437 3.6845 -5.2978 0
M  V30 END ATOM
M  V30 BEGIN BOND
M  V30 1 1 139 143
M  V30 2 1 160 165
M  V30 3 1 124 129
M  V30 4 1 139 144
M  V30 5 1 160 164
M  V30 6 1 124 128
M  V30 7 1 142 146
M  V30 8 1 157 162
M  V30 9 1 121 126
M  V30 10 1 139 142
M  V30 11 1 137 139
M  V30 12 1 157 160
M  V30 13 1 160 163
M  V30 14 1 121 124
M  V30 15 1 124 127
M  V30 16 1 145 148
M  V30 17 1 155 159
M  V30 18 1 119 123
M  V30 19 1 137 140
M  V30 20 1 134 138
M  V30 21 1 142 145
M  V30 22 1 142 147
M  V30 23 1 151 168
M  V30 24 1 127 131
M  V30 25 1 163 167
M  V30 26 1 115 132
M  V30 27 1 155 157
M  V30 28 1 157 161
M  V30 29 1 119 121
M  V30 30 1 121 125
M  V30 31 1 134 137
M  V30 32 1 137 141
M  V30 33 1 145 149
M  V30 34 1 133 145
M  V30 35 1 151 163
M  V30 36 1 163 166
M  V30 37 1 115 127
M  V30 38 1 127 130
M  V30 39 1 155 158
M  V30 40 1 152 155
M  V30 41 1 119 122
M  V30 42 1 116 119
M  V30 43 1 57 60
M  V30 44 1 27 30
M  V30 45 1 42 45
M  V30 46 1 133 134
M  V30 47 1 134 136
M  V30 48 1 151 152
M  V30 49 1 151 153
M  V30 50 1 115 116
M  V30 51 1 115 117
M  V30 52 1 51 53
M  V30 53 1 21 23
M  V30 54 1 36 38
M  V30 55 1 133 135
M  V30 56 1 133 150
M  V30 57 1 152 154
M  V30 58 1 152 156
M  V30 59 1 116 118
M  V30 60 1 116 120
M  V30 61 2 57 136
M  V30 62 1 49 57
M  V30 63 2 27 117
M  V30 64 1 19 27
M  V30 65 2 42 153
M  V30 66 1 34 42
M  V30 67 2 25 135
M  V30 68 2 55 154
M  V30 69 2 40 118
M  V30 70 2 49 51
M  V30 71 1 51 52
M  V30 72 2 19 21
M  V30 73 1 21 22
M  V30 74 2 34 36
M  V30 75 1 36 37
M  V30 76 1 48 49
M  V30 77 1 18 19
M  V30 78 1 33 34
M  V30 79 1 22 25
M  V30 80 1 25 28
M  V30 81 1 52 55
M  V30 82 1 55 58
M  V30 83 1 37 40
M  V30 84 1 40 43
M  V30 85 2 22 24
M  V30 86 2 52 54
M  V30 87 2 37 39
M  V30 88 1 48 50
M  V30 89 2 46 48
M  V30 90 1 18 20
M  V30 91 2 16 18
M  V30 92 1 33 35
M  V30 93 2 31 33
M  V30 94 1 46 54
M  V30 95 1 54 56
M  V30 96 1 16 24
M  V30 97 1 24 26
M  V30 98 1 31 39
M  V30 99 1 39 41
M  V30 100 1 46 47
M  V30 101 1 16 17
M  V30 102 1 31 32
M  V30 103 1 47 59
M  V30 104 2 47 100
M  V30 105 1 17 29
M  V30 106 2 17 64
M  V30 107 1 32 44
M  V30 108 2 32 82
M  V30 109 1 98 100
M  V30 110 1 62 64
M  V30 111 1 80 82
M  V30 112 1 101 104
M  V30 113 1 65 68
M  V30 114 1 83 86
M  V30 115 1 101 105
M  V30 116 1 65 69
M  V30 117 1 83 87
M  V30 118 1 98 101
M  V30 119 1 98 102
M  V30 120 1 97 98
M  V30 121 1 62 65
M  V30 122 1 62 66
M  V30 123 1 61 62
M  V30 124 1 80 83
M  V30 125 1 80 84
M  V30 126 1 79 80
M  V30 127 1 101 103
M  V30 128 1 65 67
M  V30 129 1 83 85
M  V30 130 1 2 14
M  V30 131 1 12 15
M  V30 132 1 10 13
M  V30 133 1 3 5
M  V30 134 1 3 4
M  V30 135 2 1 3
M  V30 136 2 4 6
M  V30 137 1 4 12
M  V30 138 1 1 9
M  V30 139 1 1 2
M  V30 140 1 6 7
M  V30 141 1 6 8
M  V30 142 2 7 9
M  V30 143 1 9 11
M  V30 144 1 7 10
M  V30 145 2 12 99
M  V30 146 2 2 63
M  V30 147 2 10 81
M  V30 148 1 97 114
M  V30 149 1 61 78
M  V30 150 1 79 96
M  V30 151 1 97 99
M  V30 152 1 61 63
M  V30 153 1 79 81
M  V30 154 1 97 109
M  V30 155 1 61 73
M  V30 156 1 79 91
M  V30 157 1 103 108
M  V30 158 1 103 107
M  V30 159 1 103 106
M  V30 160 1 67 72
M  V30 161 1 67 71
M  V30 162 1 67 70
M  V30 163 1 85 90
M  V30 164 1 85 89
M  V30 165 1 85 88
M  V30 166 1 106 111
M  V30 167 1 70 75
M  V30 168 1 106 109
M  V30 169 1 109 112
M  V30 170 1 109 113
M  V30 171 1 70 73
M  V30 172 1 73 76
M  V30 173 1 73 77
M  V30 174 1 88 93
M  V30 175 1 88 91
M  V30 176 1 91 94
M  V30 177 1 91 95
M  V30 178 1 106 110
M  V30 179 1 70 74
M  V30 180 1 88 92
M  V30 END BOND
M  V30 END CTAB
M  END

$$$$
