
     RDKit          3D

  0  0  0  0  0  0  0  0  0  0999 V3000
M  V30 BEGIN CTAB
M  V30 COUNTS 168 180 0 0 0
M  V30 BEGIN ATOM
M  V30 1 C -0.6384 0.5481 3.9763 0
M  V30 2 C -1.6944 -0.3958 4.3137 0
M  V30 3 C -0.9599 1.8314 3.5508 0
M  V30 4 C 0.0429 2.7568 3.2618 0
M  V30 5 H -1.9879 2.1435 3.4485 0
M  V30 6 C 1.3745 2.3818 3.3934 0
M  V30 7 C 1.7127 1.0972 3.8195 0
M  V30 8 H 2.1729 3.0770 3.1835 0
M  V30 9 C 0.7027 0.1859 4.1037 0
M  V30 10 C 3.1080 0.7199 3.9954 0
M  V30 11 H 0.9322 -0.8133 4.4415 0
M  V30 12 C -0.2975 4.1130 2.8553 0
M  V30 13 H 3.2943 -0.3486 4.1854 0
M  V30 14 H -2.7162 -0.0877 4.0427 0
M  V30 15 H 0.5418 4.7312 2.5009 0
M  V30 16 C -1.4597 -3.5109 0.9138 0
M  V30 17 C -1.3865 -3.7084 2.3545 0
M  V30 18 C -0.4493 -3.9960 0.0920 0
M  V30 19 C -0.5264 -3.8481 -1.2929 0
M  V30 20 H 0.4065 -4.5084 0.5041 0
M  V30 21 C -1.6223 -3.1989 -1.8486 0
M  V30 22 C -2.6441 -2.7067 -1.0365 0
M  V30 23 H -1.7140 -3.0745 -2.9167 0
M  V30 24 C -2.5537 -2.8615 0.3416 0
M  V30 25 C -3.8101 -2.0629 -1.6249 0
M  V30 26 H -3.3310 -2.4973 0.9958 0
M  V30 27 C 0.5139 -4.3936 -2.1533 0
M  V30 28 H -4.4921 -1.5677 -0.9163 0
M  V30 29 H -0.4265 -4.0890 2.7365 0
M  V30 30 H 0.4593 -4.1027 -3.2138 0
M  V30 31 C 4.6987 0.4886 -0.3328 0
M  V30 32 C 5.1942 1.2676 0.7931 0
M  V30 33 C 4.3849 1.1187 -1.5313 0
M  V30 34 C 3.9467 0.3795 -2.6299 0
M  V30 35 H 4.4866 2.1874 -1.6424 0
M  V30 36 C 3.8152 -0.9992 -2.5146 0
M  V30 37 C 4.1263 -1.6455 -1.3183 0
M  V30 38 H 3.4847 -1.5994 -3.3484 0
M  V30 39 C 4.5619 -0.8959 -0.2320 0
M  V30 40 C 4.0259 -3.0944 -1.2133 0
M  V30 41 H 4.8164 -1.3676 0.7048 0
M  V30 42 C 3.6579 1.0383 -3.8959 0
M  V30 43 H 4.1387 -3.5098 -0.2000 0
M  V30 44 H 5.1271 2.3613 0.6841 0
M  V30 45 H 3.1731 0.4128 -4.6615 0
M  V30 46 C -2.0085 3.5483 -1.3953 0
M  V30 47 C -2.6130 4.1838 -0.2331 0
M  V30 48 C -2.6791 2.5276 -2.0585 0
M  V30 49 C -2.1290 1.9371 -3.1962 0
M  V30 50 H -3.6426 2.1804 -1.7181 0
M  V30 51 C -0.8930 2.3718 -3.6594 0
M  V30 52 C -0.2080 3.3953 -3.0040 0
M  V30 53 H -0.4440 1.9393 -4.5403 0
M  V30 54 C -0.7685 3.9742 -1.8718 0
M  V30 55 C 1.0679 3.8759 -3.5154 0
M  V30 56 H -0.2662 4.7723 -1.3468 0
M  V30 57 C -2.8531 0.8962 -3.9120 0
M  V30 58 H 1.6145 4.5719 -2.8603 0
M  V30 59 H -3.5120 3.6903 0.1680 0
M  V30 60 H -2.2885 0.3769 -4.7019 0
M  V30 61 C -2.5176 -2.3740 5.2385 0
M  V30 62 C -2.2668 -3.7129 4.5154 0
M  V30 63 N -1.4519 -1.4823 4.9051 0
M  V30 64 N -2.3716 -3.4854 3.1085 0
M  V30 65 C -3.3292 -4.7344 4.9300 0
M  V30 66 H -1.2627 -4.0753 4.8013 0
M  V30 67 C -3.3291 -4.9416 6.4396 0
M  V30 68 H -3.1306 -5.6768 4.4150 0
M  V30 69 H -4.3035 -4.3708 4.5991 0
M  V30 70 C -3.5742 -3.6181 7.1562 0
M  V30 71 H -2.3645 -5.3494 6.7506 0
M  V30 72 H -4.1021 -5.6636 6.7104 0
M  V30 73 C -2.5196 -2.5945 6.7537 0
M  V30 74 H -3.5467 -3.7665 8.2376 0
M  V30 75 H -4.5655 -3.2416 6.8937 0
M  V30 76 H -1.5276 -2.9374 7.0526 0
M  V30 77 H -2.7069 -1.6388 7.2477 0
M  V30 78 H -3.4992 -1.9854 4.9120 0
M  V30 79 C 5.3929 1.1655 4.1588 0
M  V30 80 C 6.1904 1.5211 2.8877 0
M  V30 81 N 4.0370 1.5710 3.9609 0
M  V30 82 N 5.6947 0.7208 1.8126 0
M  V30 83 C 7.6728 1.2006 3.0978 0
M  V30 84 H 6.0618 2.6011 2.6921 0
M  V30 85 C 8.2304 1.9541 4.2990 0
M  V30 86 H 8.2216 1.4663 2.1917 0
M  V30 87 H 7.7742 0.1243 3.2472 0
M  V30 88 C 7.4410 1.6057 5.5564 0
M  V30 89 H 8.1655 3.0292 4.1162 0
M  V30 90 H 9.2835 1.6994 4.4348 0
M  V30 91 C 5.9641 1.9243 5.3597 0
M  V30 92 H 7.8267 2.1680 6.4092 0
M  V30 93 H 7.5577 0.5417 5.7747 0
M  V30 94 H 5.8285 2.9934 5.1869 0
M  V30 95 H 5.3929 1.6539 6.2504 0
M  V30 96 H 5.4783 0.0762 4.3250 0
M  V30 97 C -1.7674 5.8991 2.5453 0
M  V30 98 C -2.7856 5.8529 1.3882 0
M  V30 99 N -1.4751 4.5555 2.9343 0
M  V30 100 N -2.1506 5.2475 0.2603 0
M  V30 101 C -3.2087 7.2752 1.0112 0
M  V30 102 H -3.6647 5.2749 1.7267 0
M  V30 103 C -3.8037 8.0047 2.2093 0
M  V30 104 H -3.9349 7.2219 0.1973 0
M  V30 105 H -2.3310 7.8088 0.6423 0
M  V30 106 C -2.7988 8.0488 3.3555 0
M  V30 107 H -4.7072 7.4863 2.5388 0
M  V30 108 H -4.0853 9.0186 1.9181 0
M  V30 109 C -2.3736 6.6376 3.7417 0
M  V30 110 H -3.2387 8.5486 4.2209 0
M  V30 111 H -1.9213 8.6215 3.0466 0
M  V30 112 H -3.2342 6.0682 4.0971 0
M  V30 113 H -1.6361 6.6677 4.5468 0
M  V30 114 H -0.8665 6.4314 2.1897 0
M  V30 115 C 2.3942 -5.7048 -2.5906 0
M  V30 116 C 3.7770 -5.2444 -2.0866 0
M  V30 117 N 1.4012 -5.1726 -1.7119 0
M  V30 118 N 3.8504 -3.8241 -2.2261 0
M  V30 119 C 4.8788 -5.8810 -2.9380 0
M  V30 120 H 3.8825 -5.5620 -1.0334 0
M  V30 121 C 4.7847 -7.4015 -2.9067 0
M  V30 122 H 5.8492 -5.5505 -2.5616 0
M  V30 123 H 4.7754 -5.5176 -3.9619 0
M  V30 124 C 3.4168 -7.8583 -3.4022 0
M  V30 125 H 4.9364 -7.7542 -1.8839 0
M  V30 126 H 5.5718 -7.8302 -3.5303 0
M  V30 127 C 2.3122 -7.2335 -2.5587 0
M  V30 128 H 3.3442 -8.9466 -3.3527 0
M  V30 129 H 3.2907 -7.5600 -4.4455 0
M  V30 130 H 2.3988 -7.5610 -1.5213 0
M  V30 131 H 1.3308 -7.5406 -2.9265 0
M  V30 132 H 2.2671 -5.3414 -3.6265 0
M  V30 133 C -5.2003 -1.4721 -3.4041 0
M  V30 134 C -4.7437 -0.3834 -4.3964 0
M  V30 135 N -4.0347 -2.0984 -2.8648 0
M  V30 136 N -4.0591 0.6311 -3.6590 0
M  V30 137 C -5.9633 0.2418 -5.0792 0
M  V30 138 H -4.0904 -0.8578 -5.1510 0
M  V30 139 C -6.7894 -0.8166 -5.7996 0
M  V30 140 H -5.6202 1.0032 -5.7831 0
M  V30 141 H -6.5672 0.7378 -4.3173 0
M  V30 142 C -7.2393 -1.8953 -4.8201 0
M  V30 143 H -6.1880 -1.2720 -6.5897 0
M  V30 144 H -7.6582 -0.3480 -6.2666 0
M  V30 145 C -6.0326 -2.5274 -4.1375 0
M  V30 146 H -7.8081 -2.6652 -5.3453 0
M  V30 147 H -7.8923 -1.4507 -4.0657 0
M  V30 148 H -5.3946 -3.0164 -4.8758 0
M  V30 149 H -6.3534 -3.2841 -3.4183 0
M  V30 150 H -5.8101 -0.9885 -2.6195 0
M  V30 151 C 3.6914 2.8482 -5.3689 0
M  V30 152 C 2.7481 4.0438 -5.1265 0
M  V30 153 N 3.9721 2.2407 -4.1065 0
M  V30 154 N 1.5005 3.5359 -4.6495 0
M  V30 155 C 2.5064 4.7900 -6.4415 0
M  V30 156 H 3.2277 4.7171 -4.3930 0
M  V30 157 C 3.8196 5.2677 -7.0487 0
M  V30 158 H 1.8443 5.6367 -6.2486 0
M  V30 159 H 1.9955 4.1154 -7.1307 0
M  V30 160 C 4.7546 4.0869 -7.2864 0
M  V30 161 H 4.2974 5.9776 -6.3694 0
M  V30 162 H 3.6215 5.7848 -7.9898 0
M  V30 163 C 5.0054 3.3390 -5.9828 0
M  V30 164 H 5.7040 4.4367 -7.6966 0
M  V30 165 H 4.3037 3.4081 -8.0141 0
M  V30 166 H 5.4986 3.9930 -5.2615 0
M  V30 167 H 5.6559 2.4789 -6.1549 0
M  V30 168 H 3.1890 2.1488 -6.0616 0
M  V30 END ATOM
M  V30 BEGIN BOND
M  V30 1 1 139 143
M  V30 2 1 160 165
M  V30 3 1 124 129
M  V30 4 1 139 144
M  V30 5 1 160 164
M  V30 6 1 124 128
M  V30 7 1 142 146
M  V30 8 1 157 162
M  V30 9 1 121 126
M  V30 10 1 139 142
M  V30 11 1 137 139
M  V30 12 1 157 160
M  V30 13 1 160 163
M  V30 14 1 121 124
M  V30 15 1 124 127
M  V30 16 1 145 148
M  V30 17 1 155 159
M  V30 18 1 119 123
M  V30 19 1 137 140
M  V30 20 1 134 138
M  V30 21 1 142 145
M  V30 22 1 142 147
M  V30 23 1 151 168
M  V30 24 1 127 131
M  V30 25 1 163 167
M  V30 26 1 115 132
M  V30 27 1 155 157
M  V30 28 1 157 161
M  V30 29 1 119 121
M  V30 30 1 121 125
M  V30 31 1 134 137
M  V30 32 1 137 141
M  V30 33 1 145 149
M  V30 34 1 133 145
M  V30 35 1 151 163
M  V30 36 1 163 166
M  V30 37 1 115 127
M  V30 38 1 127 130
M  V30 39 1 155 158
M  V30 40 1 152 155
M  V30 41 1 119 122
M  V30 42 1 116 119
M  V30 43 1 57 60
M  V30 44 1 27 30
M  V30 45 1 42 45
M  V30 46 1 133 134
M  V30 47 1 134 136
M  V30 48 1 151 152
M  V30 49 1 151 153
M  V30 50 1 115 116
M  V30 51 1 115 117
M  V30 52 1 51 53
M  V30 53 1 21 23
M  V30 54 1 36 38
M  V30 55 1 133 135
M  V30 56 1 133 150
M  V30 57 1 152 154
M  V30 58 1 152 156
M  V30 59 1 116 118
M  V30 60 1 116 120
M  V30 61 2 57 136
M  V30 62 1 49 57
M  V30 63 2 27 117
M  V30 64 1 19 27
M  V30 65 2 42 153
M  V30 66 1 34 42
M  V30 67 2 25 135
M  V30 68 2 55 154
M  V30 69 2 40 118
M  V30 70 2 49 51
M  V30 71 1 51 52
M  V30 72 2 19 21
M  V30 73 1 21 22
M  V30 74 2 34 36
M  V30 75 1 36 37
M  V30 76 1 48 49
M  V30 77 1 18 19
M  V30 78 1 33 34
M  V30 79 1 22 25
M  V30 80 1 25 28
M  V30 81 1 52 55
M  V30 82 1 55 58
M  V30 83 1 37 40
M  V30 84 1 40 43
M  V30 85 2 22 24
M  V30 86 2 52 54
M  V30 87 2 37 39
M  V30 88 1 48 50
M  V30 89 2 46 48
M  V30 90 1 18 20
M  V30 91 2 16 18
M  V30 92 1 33 35
M  V30 93 2 31 33
M  V30 94 1 46 54
M  V30 95 1 54 56
M  V30 96 1 16 24
M  V30 97 1 24 26
M  V30 98 1 31 39
M  V30 99 1 39 41
M  V30 100 1 46 47
M  V30 101 1 16 17
M  V30 102 1 31 32
M  V30 103 1 47 59
M  V30 104 2 47 100
M  V30 105 1 17 29
M  V30 106 2 17 64
M  V30 107 1 32 44
M  V30 108 2 32 82
M  V30 109 1 98 100
M  V30 110 1 62 64
M  V30 111 1 80 82
M  V30 112 1 101 104
M  V30 113 1 65 68
M  V30 114 1 83 86
M  V30 115 1 101 105
M  V30 116 1 65 69
M  V30 117 1 83 87
M  V30 118 1 98 101
M  V30 119 1 98 102
M  V30 120 1 97 98
M  V30 121 1 62 65
M  V30 122 1 62 66
M  V30 123 1 61 62
M  V30 124 1 80 83
M  V30 125 1 80 84
M  V30 126 1 79 80
M  V30 127 1 101 103
M  V30 128 1 65 67
M  V30 129 1 83 85
M  V30 130 1 2 14
M  V30 131 1 12 15
M  V30 132 1 10 13
M  V30 133 1 3 5
M  V30 134 1 3 4
M  V30 135 2 1 3
M  V30 136 2 4 6
M  V30 137 1 4 12
M  V30 138 1 1 9
M  V30 139 1 1 2
M  V30 140 1 6 7
M  V30 141 1 6 8
M  V30 142 2 7 9
M  V30 143 1 9 11
M  V30 144 1 7 10
M  V30 145 2 12 99
M  V30 146 2 2 63
M  V30 147 2 10 81
M  V30 148 1 97 114
M  V30 149 1 61 78
M  V30 150 1 79 96
M  V30 151 1 97 99
M  V30 152 1 61 63
M  V30 153 1 79 81
M  V30 154 1 97 109
M  V30 155 1 61 73
M  V30 156 1 79 91
M  V30 157 1 103 108
M  V30 158 1 103 107
M  V30 159 1 103 106
M  V30 160 1 67 72
M  V30 161 1 67 71
M  V30 162 1 67 70
M  V30 163 1 85 90
M  V30 164 1 85 89
M  V30 165 1 85 88
M  V30 166 1 106 111
M  V30 167 1 70 75
M  V30 168 1 106 109
M  V30 169 1 109 112
M  V30 170 1 109 113
M  V30 171 1 70 73
M  V30 172 1 73 76
M  V30 173 1 73 77
M  V30 174 1 88 93
M  V30 175 1 88 91
M  V30 176 1 91 94
M  V30 177 1 91 95
M  V30 178 1 106 110
M  V30 179 1 70 74
M  V30 180 1 88 92
M  V30 END BOND
M  V30 END CTAB
M  END

$$$$
