
     RDKit          3D

  0  0  0  0  0  0  0  0  0  0999 V3000
M  V30 BEGIN CTAB
M  V30 COUNTS 168 180 0 0 0
M  V30 BEGIN ATOM
M  V30 1 C -2.5477 3.2327 1.3775 0
M  V30 2 C -2.7815 4.1856 0.3017 0
M  V30 3 C -1.5588 3.4772 2.3228 0
M  V30 4 C -1.3512 2.5913 3.3800 0
M  V30 5 H -0.9418 4.3610 2.2683 0
M  V30 6 C -2.1380 1.4499 3.4770 0
M  V30 7 C -3.1344 1.1911 2.5357 0
M  V30 8 H -2.0059 0.7488 4.2869 0
M  V30 9 C -3.3297 2.0828 1.4878 0
M  V30 10 C -3.9841 0.0155 2.6626 0
M  V30 11 H -4.0966 1.9137 0.7473 0
M  V30 12 C -0.3416 2.8710 4.3915 0
M  V30 13 H -4.6391 -0.1964 1.8032 0
M  V30 14 H -2.0290 4.9824 0.1962 0
M  V30 15 H -0.1367 2.0548 5.1015 0
M  V30 16 C -1.2967 1.9379 -3.4482 0
M  V30 17 C -2.5963 2.5397 -3.1859 0
M  V30 18 C -1.2106 0.6031 -3.8253 0
M  V30 19 C 0.0248 0.0248 -4.1176 0
M  V30 20 H -2.0948 -0.0093 -3.9140 0
M  V30 21 C 1.1776 0.7945 -4.0184 0
M  V30 22 C 1.1068 2.1356 -3.6410 0
M  V30 23 H 2.1473 0.3779 -4.2440 0
M  V30 24 C -0.1309 2.6981 -3.3531 0
M  V30 25 C 2.3125 2.9496 -3.5773 0
M  V30 26 H -0.2189 3.7344 -3.0647 0
M  V30 27 C 0.1071 -1.3625 -4.5518 0
M  V30 28 H 2.1935 3.9468 -3.1255 0
M  V30 29 H -3.4449 1.8401 -3.1325 0
M  V30 30 H 1.1217 -1.7856 -4.6129 0
M  V30 31 C -1.1263 -3.4719 1.6685 0
M  V30 32 C -1.9459 -3.2582 2.8527 0
M  V30 33 C 0.2401 -3.6915 1.7976 0
M  V30 34 C 1.0302 -3.9365 0.6746 0
M  V30 35 H 0.7154 -3.6915 2.7665 0
M  V30 36 C 0.4403 -3.9497 -0.5836 0
M  V30 37 C -0.9297 -3.7309 -0.7289 0
M  V30 38 H 1.0236 -4.1427 -1.4709 0
M  V30 39 C -1.7044 -3.4882 0.3992 0
M  V30 40 C -1.5513 -3.7853 -2.0446 0
M  V30 41 H -2.7678 -3.3217 0.3199 0
M  V30 42 C 2.4539 -4.2065 0.8177 0
M  V30 43 H -2.5994 -3.4517 -2.0929 0
M  V30 44 H -1.3954 -3.1075 3.7944 0
M  V30 45 H 3.0320 -4.2362 -0.1189 0
M  V30 46 C 3.6318 2.2402 2.1271 0
M  V30 47 C 3.1623 3.4063 2.8617 0
M  V30 48 C 4.0423 2.3683 0.8055 0
M  V30 49 C 4.5310 1.2670 0.1027 0
M  V30 50 H 4.0058 3.3214 0.3005 0
M  V30 51 C 4.5955 0.0303 0.7333 0
M  V30 52 C 4.1868 -0.1137 2.0593 0
M  V30 53 H 4.9746 -0.8390 0.2183 0
M  V30 54 C 3.7023 0.9925 2.7470 0
M  V30 55 C 4.2936 -1.4020 2.7295 0
M  V30 56 H 3.3847 0.9144 3.7755 0
M  V30 57 C 4.9983 1.4137 -1.2686 0
M  V30 58 H 3.8103 -1.4696 3.7166 0
M  V30 59 H 2.9919 4.3131 2.2607 0
M  V30 60 H 5.2216 0.4763 -1.8011 0
M  V30 61 C -4.0042 5.0814 -1.4728 0
M  V30 62 C -4.0364 4.3396 -2.8244 0
M  V30 63 N -3.7982 4.1152 -0.4403 0
M  V30 64 N -2.7404 3.7854 -3.0591 0
M  V30 65 C -4.3625 5.3247 -3.9502 0
M  V30 66 H -4.8159 3.5580 -2.7693 0
M  V30 67 C -5.6939 6.0218 -3.6986 0
M  V30 68 H -4.3890 4.7807 -4.8968 0
M  V30 69 H -3.5573 6.0591 -4.0085 0
M  V30 70 C -5.6647 6.7534 -2.3610 0
M  V30 71 H -6.4964 5.2804 -3.6892 0
M  V30 72 H -5.8971 6.7266 -4.5074 0
M  V30 73 C -5.3447 5.7811 -1.2323 0
M  V30 74 H -6.6293 7.2289 -2.1726 0
M  V30 75 H -4.9041 7.5370 -2.3928 0
M  V30 76 H -6.1222 5.0189 -1.1592 0
M  V30 77 H -5.3001 6.3072 -0.2763 0
M  V30 78 H -3.1898 5.8274 -1.5092 0
M  V30 79 C -4.8506 -1.8287 3.8001 0
M  V30 80 C -3.9746 -3.0833 3.9920 0
M  V30 81 N -3.9872 -0.6941 3.7043 0
M  V30 82 N -3.2054 -3.2753 2.8032 0
M  V30 83 C -4.8647 -4.3105 4.2066 0
M  V30 84 H -3.3334 -2.9227 4.8775 0
M  V30 85 C -5.7815 -4.1179 5.4083 0
M  V30 86 H -4.2277 -5.1862 4.3486 0
M  V30 87 H -5.4555 -4.4692 3.3028 0
M  V30 88 C -6.6465 -2.8760 5.2213 0
M  V30 89 H -5.1781 -4.0070 6.3121 0
M  V30 90 H -6.4134 -4.9998 5.5322 0
M  V30 91 C -5.7704 -1.6473 5.0106 0
M  V30 92 H -7.2825 -2.7268 6.0962 0
M  V30 93 H -7.2955 -3.0132 4.3534 0
M  V30 94 H -5.1495 -1.4711 5.8907 0
M  V30 95 H -6.3878 -0.7603 4.8531 0
M  V30 96 H -5.4540 -1.9672 2.8847 0
M  V30 97 C 1.2073 4.2334 5.4829 0
M  V30 98 C 2.5512 4.5551 4.7985 0
M  V30 99 N 0.2365 3.9887 4.4633 0
M  V30 100 N 2.9921 3.3829 4.1104 0
M  V30 101 C 3.5954 4.9293 5.8538 0
M  V30 102 H 2.3912 5.4034 4.1084 0
M  V30 103 C 3.1296 6.1169 6.6871 0
M  V30 104 H 4.5363 5.1615 5.3505 0
M  V30 105 H 3.7634 4.0617 6.4943 0
M  V30 106 C 1.7993 5.8014 7.3625 0
M  V30 107 H 3.0105 6.9900 6.0412 0
M  V30 108 H 3.8846 6.3556 7.4389 0
M  V30 109 C 0.7511 5.4311 6.3205 0
M  V30 110 H 1.4562 6.6643 7.9367 0
M  V30 111 H 1.9334 4.9679 8.0558 0
M  V30 112 H 0.5732 6.2727 5.6488 0
M  V30 113 H -0.1963 5.1818 6.8036 0
M  V30 114 H 1.3547 3.3519 6.1330 0
M  V30 115 C -0.7983 -3.3767 -5.3065 0
M  V30 116 C -1.5823 -4.2732 -4.3267 0
M  V30 117 N -0.9198 -2.0233 -4.8648 0
M  V30 118 N -0.9328 -4.2157 -3.0551 0
M  V30 119 C -1.5681 -5.7216 -4.8227 0
M  V30 120 H -2.6217 -3.9012 -4.2768 0
M  V30 121 C -2.1596 -5.8262 -6.2230 0
M  V30 122 H -2.1342 -6.3388 -4.1218 0
M  V30 123 H -0.5355 -6.0752 -4.8219 0
M  V30 124 C -1.3871 -4.9381 -7.1925 0
M  V30 125 H -3.2061 -5.5136 -6.2000 0
M  V30 126 H -2.1264 -6.8649 -6.5581 0
M  V30 127 C -1.3984 -3.4927 -6.7104 0
M  V30 128 H -1.8308 -4.9955 -8.1885 0
M  V30 129 H -0.3553 -5.2900 -7.2633 0
M  V30 130 H -2.4212 -3.1132 -6.6797 0
M  V30 131 H -0.8258 -2.8587 -7.3908 0
M  V30 132 H 0.2535 -3.7155 -5.3162 0
M  V30 133 C 4.5715 3.3796 -3.9758 0
M  V30 134 C 5.6430 2.6515 -3.1390 0
M  V30 135 N 3.4137 2.5447 -4.0381 0
M  V30 136 N 5.1631 2.5460 -1.7974 0
M  V30 137 C 6.9407 3.4643 -3.1358 0
M  V30 138 H 5.8197 1.6600 -3.5939 0
M  V30 139 C 7.4454 3.6950 -4.5548 0
M  V30 140 H 7.6887 2.9298 -2.5463 0
M  V30 141 H 6.7469 4.4194 -2.6443 0
M  V30 142 C 6.3858 4.4124 -5.3842 0
M  V30 143 H 7.6796 2.7338 -5.0183 0
M  V30 144 H 8.3628 4.2863 -4.5258 0
M  V30 145 C 5.0907 3.6098 -5.3977 0
M  V30 146 H 6.7411 4.5517 -6.4073 0
M  V30 147 H 6.1973 5.3997 -4.9564 0
M  V30 148 H 5.2542 2.6374 -5.8657 0
M  V30 149 H 4.3229 4.1330 -5.9718 0
M  V30 150 H 4.3564 4.3490 -3.4909 0
M  V30 151 C 4.3773 -4.7029 2.0426 0
M  V30 152 C 5.0257 -3.6102 2.9166 0
M  V30 153 N 2.9801 -4.4208 1.9428 0
M  V30 154 N 4.9254 -2.3665 2.2200 0
M  V30 155 C 6.5059 -3.9329 3.1388 0
M  V30 156 H 4.4951 -3.5850 3.8856 0
M  V30 157 C 6.6760 -5.3000 3.7897 0
M  V30 158 H 6.9452 -3.1540 3.7656 0
M  V30 159 H 7.0117 -3.9098 2.1720 0
M  V30 160 C 6.0328 -6.3813 2.9281 0
M  V30 161 H 6.2055 -5.2944 4.7757 0
M  V30 162 H 7.7385 -5.5113 3.9257 0
M  V30 163 C 4.5578 -6.0721 2.7037 0
M  V30 164 H 6.1337 -7.3552 3.4111 0
M  V30 165 H 6.5450 -6.4293 1.9643 0
M  V30 166 H 4.0242 -6.0671 3.6559 0
M  V30 167 H 4.1006 -6.8327 2.0673 0
M  V30 168 H 4.8727 -4.6922 1.0549 0
M  V30 END ATOM
M  V30 BEGIN BOND
M  V30 1 1 139 143
M  V30 2 1 160 165
M  V30 3 1 124 129
M  V30 4 1 139 144
M  V30 5 1 160 164
M  V30 6 1 124 128
M  V30 7 1 142 146
M  V30 8 1 157 162
M  V30 9 1 121 126
M  V30 10 1 139 142
M  V30 11 1 137 139
M  V30 12 1 157 160
M  V30 13 1 160 163
M  V30 14 1 121 124
M  V30 15 1 124 127
M  V30 16 1 145 148
M  V30 17 1 155 159
M  V30 18 1 119 123
M  V30 19 1 137 140
M  V30 20 1 134 138
M  V30 21 1 142 145
M  V30 22 1 142 147
M  V30 23 1 151 168
M  V30 24 1 127 131
M  V30 25 1 163 167
M  V30 26 1 115 132
M  V30 27 1 155 157
M  V30 28 1 157 161
M  V30 29 1 119 121
M  V30 30 1 121 125
M  V30 31 1 134 137
M  V30 32 1 137 141
M  V30 33 1 145 149
M  V30 34 1 133 145
M  V30 35 1 151 163
M  V30 36 1 163 166
M  V30 37 1 115 127
M  V30 38 1 127 130
M  V30 39 1 155 158
M  V30 40 1 152 155
M  V30 41 1 119 122
M  V30 42 1 116 119
M  V30 43 1 57 60
M  V30 44 1 27 30
M  V30 45 1 42 45
M  V30 46 1 133 134
M  V30 47 1 134 136
M  V30 48 1 151 152
M  V30 49 1 151 153
M  V30 50 1 115 116
M  V30 51 1 115 117
M  V30 52 1 51 53
M  V30 53 1 21 23
M  V30 54 1 36 38
M  V30 55 1 133 135
M  V30 56 1 133 150
M  V30 57 1 152 154
M  V30 58 1 152 156
M  V30 59 1 116 118
M  V30 60 1 116 120
M  V30 61 2 57 136
M  V30 62 1 49 57
M  V30 63 2 27 117
M  V30 64 1 19 27
M  V30 65 2 42 153
M  V30 66 1 34 42
M  V30 67 2 25 135
M  V30 68 2 55 154
M  V30 69 2 40 118
M  V30 70 2 49 51
M  V30 71 1 51 52
M  V30 72 2 19 21
M  V30 73 1 21 22
M  V30 74 2 34 36
M  V30 75 1 36 37
M  V30 76 1 48 49
M  V30 77 1 18 19
M  V30 78 1 33 34
M  V30 79 1 22 25
M  V30 80 1 25 28
M  V30 81 1 52 55
M  V30 82 1 55 58
M  V30 83 1 37 40
M  V30 84 1 40 43
M  V30 85 2 22 24
M  V30 86 2 52 54
M  V30 87 2 37 39
M  V30 88 1 48 50
M  V30 89 2 46 48
M  V30 90 1 18 20
M  V30 91 2 16 18
M  V30 92 1 33 35
M  V30 93 2 31 33
M  V30 94 1 46 54
M  V30 95 1 54 56
M  V30 96 1 16 24
M  V30 97 1 24 26
M  V30 98 1 31 39
M  V30 99 1 39 41
M  V30 100 1 46 47
M  V30 101 1 16 17
M  V30 102 1 31 32
M  V30 103 1 47 59
M  V30 104 2 47 100
M  V30 105 1 17 29
M  V30 106 2 17 64
M  V30 107 1 32 44
M  V30 108 2 32 82
M  V30 109 1 98 100
M  V30 110 1 62 64
M  V30 111 1 80 82
M  V30 112 1 101 104
M  V30 113 1 65 68
M  V30 114 1 83 86
M  V30 115 1 101 105
M  V30 116 1 65 69
M  V30 117 1 83 87
M  V30 118 1 98 101
M  V30 119 1 98 102
M  V30 120 1 97 98
M  V30 121 1 62 65
M  V30 122 1 62 66
M  V30 123 1 61 62
M  V30 124 1 80 83
M  V30 125 1 80 84
M  V30 126 1 79 80
M  V30 127 1 101 103
M  V30 128 1 65 67
M  V30 129 1 83 85
M  V30 130 1 2 14
M  V30 131 1 12 15
M  V30 132 1 10 13
M  V30 133 1 3 5
M  V30 134 1 3 4
M  V30 135 2 1 3
M  V30 136 2 4 6
M  V30 137 1 4 12
M  V30 138 1 1 9
M  V30 139 1 1 2
M  V30 140 1 6 7
M  V30 141 1 6 8
M  V30 142 2 7 9
M  V30 143 1 9 11
M  V30 144 1 7 10
M  V30 145 2 12 99
M  V30 146 2 2 63
M  V30 147 2 10 81
M  V30 148 1 97 114
M  V30 149 1 61 78
M  V30 150 1 79 96
M  V30 151 1 97 99
M  V30 152 1 61 63
M  V30 153 1 79 81
M  V30 154 1 97 109
M  V30 155 1 61 73
M  V30 156 1 79 91
M  V30 157 1 103 108
M  V30 158 1 103 107
M  V30 159 1 103 106
M  V30 160 1 67 72
M  V30 161 1 67 71
M  V30 162 1 67 70
M  V30 163 1 85 90
M  V30 164 1 85 89
M  V30 165 1 85 88
M  V30 166 1 106 111
M  V30 167 1 70 75
M  V30 168 1 106 109
M  V30 169 1 109 112
M  V30 170 1 109 113
M  V30 171 1 70 73
M  V30 172 1 73 76
M  V30 173 1 73 77
M  V30 174 1 88 93
M  V30 175 1 88 91
M  V30 176 1 91 94
M  V30 177 1 91 95
M  V30 178 1 106 110
M  V30 179 1 70 74
M  V30 180 1 88 92
M  V30 END BOND
M  V30 END CTAB
M  END

$$$$
