
     RDKit          3D

  0  0  0  0  0  0  0  0  0  0999 V3000
M  V30 BEGIN CTAB
M  V30 COUNTS 168 180 0 0 0
M  V30 BEGIN ATOM
M  V30 1 C 0.2648 -2.1772 3.9086 0
M  V30 2 C -0.5665 -3.3689 4.0032 0
M  V30 3 C -0.2464 -0.9392 4.2795 0
M  V30 4 C 0.5520 0.2035 4.2300 0
M  V30 5 H -1.2634 -0.8371 4.6260 0
M  V30 6 C 1.8676 0.0970 3.7950 0
M  V30 7 C 2.3946 -1.1388 3.4195 0
M  V30 8 H 2.5122 0.9616 3.7518 0
M  V30 9 C 1.5871 -2.2686 3.4740 0
M  V30 10 C 3.7850 -1.2539 3.0030 0
M  V30 11 H 1.9676 -3.2396 3.1962 0
M  V30 12 C 0.0259 1.4920 4.6578 0
M  V30 13 H 4.0788 -2.2273 2.5802 0
M  V30 14 H -1.6342 -3.1926 4.2066 0
M  V30 15 H 0.6642 2.3638 4.4459 0
M  V30 16 C -1.3308 -4.4831 -0.4118 0
M  V30 17 C -0.7670 -5.2906 0.6606 0
M  V30 18 C -0.6325 -4.3209 -1.6024 0
M  V30 19 C -1.1786 -3.5825 -2.6523 0
M  V30 20 H 0.3371 -4.7727 -1.7459 0
M  V30 21 C -2.4293 -2.9973 -2.4951 0
M  V30 22 C -3.1419 -3.1513 -1.3058 0
M  V30 23 H -2.8813 -2.4254 -3.2910 0
M  V30 24 C -2.5852 -3.8899 -0.2686 0
M  V30 25 C -4.4692 -2.5706 -1.1595 0
M  V30 26 H -3.1145 -4.0324 0.6611 0
M  V30 27 C -0.4621 -3.4489 -3.9128 0
M  V30 28 H -4.8973 -2.6043 -0.1456 0
M  V30 29 H 0.2837 -5.5928 0.5296 0
M  V30 30 H -0.8853 -2.7284 -4.6298 0
M  V30 31 C 3.8360 0.8355 -1.1141 0
M  V30 32 C 4.6410 1.1053 0.0688 0
M  V30 33 C 3.1054 1.8582 -1.7073 0
M  V30 34 C 2.3614 1.6226 -2.8633 0
M  V30 35 H 3.1090 2.8563 -1.2968 0
M  V30 36 C 2.3469 0.3476 -3.4161 0
M  V30 37 C 3.0751 -0.6889 -2.8318 0
M  V30 38 H 1.7862 0.1352 -4.3134 0
M  V30 39 C 3.8120 -0.4391 -1.6802 0
M  V30 40 C 3.0902 -2.0136 -3.4362 0
M  V30 41 H 4.3907 -1.2187 -1.2086 0
M  V30 42 C 1.6301 2.7060 -3.5050 0
M  V30 43 H 3.5584 -2.8085 -2.8354 0
M  V30 44 H 4.4854 2.0888 0.5388 0
M  V30 45 H 0.9486 2.4086 -4.3170 0
M  V30 46 C -2.9846 2.5672 1.3268 0
M  V30 47 C -3.1943 2.4663 2.7642 0
M  V30 48 C -3.7862 1.8420 0.4534 0
M  V30 49 C -3.6216 1.9596 -0.9267 0
M  V30 50 H -4.5598 1.1857 0.8215 0
M  V30 51 C -2.6375 2.8043 -1.4259 0
M  V30 52 C -1.8252 3.5384 -0.5615 0
M  V30 53 H -2.4897 2.9215 -2.4886 0
M  V30 54 C -2.0008 3.4112 0.8112 0
M  V30 55 C -0.8221 4.4530 -1.0886 0
M  V30 56 H -1.3926 3.9707 1.5054 0
M  V30 57 C -4.4902 1.2294 -1.8392 0
M  V30 58 H -0.1233 4.8745 -0.3494 0
M  V30 59 H -3.8794 1.6692 3.0925 0
M  V30 60 H -4.1987 1.2544 -2.9007 0
M  V30 61 C -0.9282 -5.6744 4.0079 0
M  V30 62 C -0.8673 -6.4557 2.6797 0
M  V30 63 N -0.0839 -4.5277 3.8881 0
M  V30 64 N -1.4509 -5.6441 1.6586 0
M  V30 65 C -1.6745 -7.7510 2.8013 0
M  V30 66 H 0.1916 -6.6895 2.4665 0
M  V30 67 C -1.1559 -8.6134 3.9455 0
M  V30 68 H -1.6130 -8.2937 1.8556 0
M  V30 69 H -2.7207 -7.4897 2.9700 0
M  V30 70 C -1.2127 -7.8412 5.2592 0
M  V30 71 H -0.1233 -8.9061 3.7412 0
M  V30 72 H -1.7547 -9.5234 4.0191 0
M  V30 73 C -0.4089 -6.5512 5.1506 0
M  V30 74 H -0.8154 -8.4531 6.0714 0
M  V30 75 H -2.2525 -7.6031 5.4952 0
M  V30 76 H 0.6419 -6.7764 4.9610 0
M  V30 77 H -0.4676 -5.9851 6.0827 0
M  V30 78 H -1.9809 -5.3948 4.1945 0
M  V30 79 C 5.9657 -0.4640 2.7448 0
M  V30 80 C 6.2697 0.5859 1.6568 0
M  V30 81 N 4.6035 -0.3062 3.1466 0
M  V30 82 N 5.4826 0.2747 0.5055 0
M  V30 83 C 7.7506 0.5228 1.2733 0
M  V30 84 H 6.0277 1.5839 2.0651 0
M  V30 85 C 8.6407 0.7494 2.4890 0
M  V30 86 H 7.9482 1.2776 0.5091 0
M  V30 87 H 7.9512 -0.4568 0.8360 0
M  V30 88 C 8.3393 -0.2863 3.5670 0
M  V30 89 H 8.4632 1.7507 2.8882 0
M  V30 90 H 9.6896 0.6872 2.1919 0
M  V30 91 C 6.8681 -0.2297 3.9592 0
M  V30 92 H 8.9603 -0.1039 4.4463 0
M  V30 93 H 8.5769 -1.2832 3.1886 0
M  V30 94 H 6.6279 0.7470 4.3828 0
M  V30 95 H 6.6447 -0.9865 4.7143 0
M  V30 96 H 6.1576 -1.4657 2.3192 0
M  V30 97 C -1.5518 2.8737 5.6819 0
M  V30 98 C -2.8963 3.1442 4.9768 0
M  V30 99 N -1.0774 1.5939 5.2587 0
M  V30 100 N -2.6478 3.2621 3.5746 0
M  V30 101 C -3.4937 4.4595 5.4840 0
M  V30 102 H -3.5794 2.3062 5.2062 0
M  V30 103 C -3.6872 4.4258 6.9950 0
M  V30 104 H -4.4477 4.6296 4.9804 0
M  V30 105 H -2.8197 5.2723 5.2080 0
M  V30 106 C -2.3588 4.1557 7.6936 0
M  V30 107 H -4.3994 3.6385 7.2529 0
M  V30 108 H -4.1018 5.3778 7.3326 0
M  V30 109 C -1.7569 2.8463 7.1989 0
M  V30 110 H -2.5068 4.1058 8.7742 0
M  V30 111 H -1.6670 4.9753 7.4864 0
M  V30 112 H -2.4174 2.0120 7.4415 0
M  V30 113 H -0.7941 2.6624 7.6806 0
M  V30 114 H -0.8516 3.6844 5.4099 0
M  V30 115 C 1.2257 -3.9951 -5.4291 0
M  V30 116 C 2.6720 -3.5348 -5.1561 0
M  V30 117 N 0.5605 -4.1385 -4.1727 0
M  V30 118 N 2.6215 -2.2249 -4.5871 0
M  V30 119 C 3.4540 -3.4715 -6.4709 0
M  V30 120 H 3.1419 -4.2645 -4.4720 0
M  V30 121 C 3.4538 -4.8237 -7.1732 0
M  V30 122 H 4.4763 -3.1524 -6.2569 0
M  V30 123 H 2.9936 -2.7149 -7.1088 0
M  V30 124 C 2.0241 -5.2816 -7.4413 0
M  V30 125 H 3.9586 -5.5604 -6.5441 0
M  V30 126 H 4.0059 -4.7489 -8.1123 0
M  V30 127 C 1.2375 -5.3520 -6.1383 0
M  V30 128 H 2.0281 -6.2627 -7.9204 0
M  V30 129 H 1.5392 -4.5773 -8.1214 0
M  V30 130 H 1.6847 -6.0871 -5.4669 0
M  V30 131 H 0.2066 -5.6571 -6.3305 0
M  V30 132 H 0.7390 -3.2381 -6.0704 0
M  V30 133 C -6.4053 -1.5442 -1.9628 0
M  V30 134 C -6.3656 -0.0561 -2.3654 0
M  V30 135 N -5.0958 -2.0876 -2.1408 0
M  V30 136 N -5.5255 0.6331 -1.4376 0
M  V30 137 C -7.7741 0.5399 -2.2919 0
M  V30 138 H -5.9810 0.0104 -3.3994 0
M  V30 139 C -8.7392 -0.2246 -3.1895 0
M  V30 140 H -7.7272 1.5901 -2.5881 0
M  V30 141 H -8.1108 0.4992 -1.2545 0
M  V30 142 C -8.7774 -1.6969 -2.7942 0
M  V30 143 H -8.4162 -0.1364 -4.2293 0
M  V30 144 H -9.7372 0.2113 -3.1095 0
M  V30 145 C -7.3808 -2.3015 -2.8679 0
M  V30 146 H -9.4497 -2.2458 -3.4566 0
M  V30 147 H -9.1603 -1.7890 -1.7752 0
M  V30 148 H -7.0044 -2.2582 -3.8914 0
M  V30 149 H -7.4018 -3.3499 -2.5626 0
M  V30 150 H -6.7393 -1.6072 -0.9112 0
M  V30 151 C 1.0734 4.9485 -3.8336 0
M  V30 152 C 0.2069 5.6784 -2.7874 0
M  V30 153 N 1.7932 3.9094 -3.1674 0
M  V30 154 N -0.7797 4.7616 -2.3099 0
M  V30 155 C -0.5010 6.8696 -3.4388 0
M  V30 156 H 0.8704 6.0306 -1.9767 0
M  V30 157 C 0.5051 7.8329 -4.0564 0
M  V30 158 H -1.1019 7.3782 -2.6819 0
M  V30 159 H -1.1789 6.4896 -4.2051 0
M  V30 160 C 1.3645 7.1119 -5.0892 0
M  V30 161 H 1.1467 8.2410 -3.2719 0
M  V30 162 H -0.0243 8.6653 -4.5243 0
M  V30 163 C 2.0773 5.9263 -4.4504 0
M  V30 164 H 2.1014 7.7992 -5.5097 0
M  V30 165 H 0.7304 6.7583 -5.9055 0
M  V30 166 H 2.7504 6.2702 -3.6632 0
M  V30 167 H 2.6750 5.3943 -5.1937 0
M  V30 168 H 0.4037 4.5503 -4.6174 0
M  V30 END ATOM
M  V30 BEGIN BOND
M  V30 1 1 139 143
M  V30 2 1 160 165
M  V30 3 1 124 129
M  V30 4 1 139 144
M  V30 5 1 160 164
M  V30 6 1 124 128
M  V30 7 1 142 146
M  V30 8 1 157 162
M  V30 9 1 121 126
M  V30 10 1 139 142
M  V30 11 1 137 139
M  V30 12 1 157 160
M  V30 13 1 160 163
M  V30 14 1 121 124
M  V30 15 1 124 127
M  V30 16 1 145 148
M  V30 17 1 155 159
M  V30 18 1 119 123
M  V30 19 1 137 140
M  V30 20 1 134 138
M  V30 21 1 142 145
M  V30 22 1 142 147
M  V30 23 1 151 168
M  V30 24 1 127 131
M  V30 25 1 163 167
M  V30 26 1 115 132
M  V30 27 1 155 157
M  V30 28 1 157 161
M  V30 29 1 119 121
M  V30 30 1 121 125
M  V30 31 1 134 137
M  V30 32 1 137 141
M  V30 33 1 145 149
M  V30 34 1 133 145
M  V30 35 1 151 163
M  V30 36 1 163 166
M  V30 37 1 115 127
M  V30 38 1 127 130
M  V30 39 1 155 158
M  V30 40 1 152 155
M  V30 41 1 119 122
M  V30 42 1 116 119
M  V30 43 1 57 60
M  V30 44 1 27 30
M  V30 45 1 42 45
M  V30 46 1 133 134
M  V30 47 1 134 136
M  V30 48 1 151 152
M  V30 49 1 151 153
M  V30 50 1 115 116
M  V30 51 1 115 117
M  V30 52 1 51 53
M  V30 53 1 21 23
M  V30 54 1 36 38
M  V30 55 1 133 135
M  V30 56 1 133 150
M  V30 57 1 152 154
M  V30 58 1 152 156
M  V30 59 1 116 118
M  V30 60 1 116 120
M  V30 61 2 57 136
M  V30 62 1 49 57
M  V30 63 2 27 117
M  V30 64 1 19 27
M  V30 65 2 42 153
M  V30 66 1 34 42
M  V30 67 2 25 135
M  V30 68 2 55 154
M  V30 69 2 40 118
M  V30 70 2 49 51
M  V30 71 1 51 52
M  V30 72 2 19 21
M  V30 73 1 21 22
M  V30 74 2 34 36
M  V30 75 1 36 37
M  V30 76 1 48 49
M  V30 77 1 18 19
M  V30 78 1 33 34
M  V30 79 1 22 25
M  V30 80 1 25 28
M  V30 81 1 52 55
M  V30 82 1 55 58
M  V30 83 1 37 40
M  V30 84 1 40 43
M  V30 85 2 22 24
M  V30 86 2 52 54
M  V30 87 2 37 39
M  V30 88 1 48 50
M  V30 89 2 46 48
M  V30 90 1 18 20
M  V30 91 2 16 18
M  V30 92 1 33 35
M  V30 93 2 31 33
M  V30 94 1 46 54
M  V30 95 1 54 56
M  V30 96 1 16 24
M  V30 97 1 24 26
M  V30 98 1 31 39
M  V30 99 1 39 41
M  V30 100 1 46 47
M  V30 101 1 16 17
M  V30 102 1 31 32
M  V30 103 1 47 59
M  V30 104 2 47 100
M  V30 105 1 17 29
M  V30 106 2 17 64
M  V30 107 1 32 44
M  V30 108 2 32 82
M  V30 109 1 98 100
M  V30 110 1 62 64
M  V30 111 1 80 82
M  V30 112 1 101 104
M  V30 113 1 65 68
M  V30 114 1 83 86
M  V30 115 1 101 105
M  V30 116 1 65 69
M  V30 117 1 83 87
M  V30 118 1 98 101
M  V30 119 1 98 102
M  V30 120 1 97 98
M  V30 121 1 62 65
M  V30 122 1 62 66
M  V30 123 1 61 62
M  V30 124 1 80 83
M  V30 125 1 80 84
M  V30 126 1 79 80
M  V30 127 1 101 103
M  V30 128 1 65 67
M  V30 129 1 83 85
M  V30 130 1 2 14
M  V30 131 1 12 15
M  V30 132 1 10 13
M  V30 133 1 3 5
M  V30 134 1 3 4
M  V30 135 2 1 3
M  V30 136 2 4 6
M  V30 137 1 4 12
M  V30 138 1 1 9
M  V30 139 1 1 2
M  V30 140 1 6 7
M  V30 141 1 6 8
M  V30 142 2 7 9
M  V30 143 1 9 11
M  V30 144 1 7 10
M  V30 145 2 12 99
M  V30 146 2 2 63
M  V30 147 2 10 81
M  V30 148 1 97 114
M  V30 149 1 61 78
M  V30 150 1 79 96
M  V30 151 1 97 99
M  V30 152 1 61 63
M  V30 153 1 79 81
M  V30 154 1 97 109
M  V30 155 1 61 73
M  V30 156 1 79 91
M  V30 157 1 103 108
M  V30 158 1 103 107
M  V30 159 1 103 106
M  V30 160 1 67 72
M  V30 161 1 67 71
M  V30 162 1 67 70
M  V30 163 1 85 90
M  V30 164 1 85 89
M  V30 165 1 85 88
M  V30 166 1 106 111
M  V30 167 1 70 75
M  V30 168 1 106 109
M  V30 169 1 109 112
M  V30 170 1 109 113
M  V30 171 1 70 73
M  V30 172 1 73 76
M  V30 173 1 73 77
M  V30 174 1 88 93
M  V30 175 1 88 91
M  V30 176 1 91 94
M  V30 177 1 91 95
M  V30 178 1 106 110
M  V30 179 1 70 74
M  V30 180 1 88 92
M  V30 END BOND
M  V30 END CTAB
M  END

$$$$
