
     RDKit          3D

  0  0  0  0  0  0  0  0  0  0999 V3000
M  V30 BEGIN CTAB
M  V30 COUNTS 168 180 0 0 0
M  V30 BEGIN ATOM
M  V30 1 C -1.4067 0.7540 4.0544 0
M  V30 2 C -2.6472 0.0283 4.2877 0
M  V30 3 C -1.4411 2.0941 3.6878 0
M  V30 4 C -0.2591 2.8103 3.4993 0
M  V30 5 H -2.3787 2.6118 3.5552 0
M  V30 6 C 0.9613 2.1683 3.6718 0
M  V30 7 C 1.0117 0.8237 4.0397 0
M  V30 8 H 1.8929 2.6970 3.5395 0
M  V30 9 C -0.1742 0.1230 4.2239 0
M  V30 10 C 2.2914 0.1647 4.2593 0
M  V30 11 H -0.1682 -0.9164 4.5148 0
M  V30 12 C -0.2986 4.2245 3.1549 0
M  V30 13 H 2.2499 -0.9271 4.3967 0
M  V30 14 H -3.5698 0.5486 3.9869 0
M  V30 15 H 0.6661 4.6762 2.8759 0
M  V30 16 C -2.8429 -2.9095 0.7312 0
M  V30 17 C -2.8934 -3.1841 2.1602 0
M  V30 18 C -1.9040 -3.5503 -0.0685 0
M  V30 19 C -1.8704 -3.3261 -1.4448 0
M  V30 20 H -1.1925 -4.2434 0.3537 0
M  V30 21 C -2.7812 -2.4439 -2.0137 0
M  V30 22 C -3.7294 -1.7935 -1.2238 0
M  V30 23 H -2.7848 -2.2543 -3.0761 0
M  V30 24 C -3.7510 -2.0269 0.1460 0
M  V30 25 C -4.7080 -0.9010 -1.8288 0
M  V30 26 H -4.4764 -1.5438 0.7826 0
M  V30 27 C -0.9120 -4.0301 -2.2849 0
M  V30 28 H -5.3172 -0.3116 -1.1261 0
M  V30 29 H -2.0520 -3.7680 2.5647 0
M  V30 30 H -0.8466 -3.6854 -3.3286 0
M  V30 31 C 4.0501 -0.1829 0.0043 0
M  V30 32 C 4.6253 0.4270 1.1947 0
M  V30 33 C 3.9374 0.5522 -1.1697 0
M  V30 34 C 3.4245 -0.0318 -2.3280 0
M  V30 35 H 4.2562 1.5823 -1.2151 0
M  V30 36 C 3.0146 -1.3593 -2.2975 0
M  V30 37 C 3.1215 -2.1097 -1.1265 0
M  V30 38 H 2.6196 -1.8413 -3.1786 0
M  V30 39 C 3.6346 -1.5145 0.0198 0
M  V30 40 C 2.7286 -3.5117 -1.1088 0
M  V30 41 H 3.7357 -2.0706 0.9393 0
M  V30 42 C 3.3460 0.7295 -3.5667 0
M  V30 43 H 2.6979 -3.9877 -0.1164 0
M  V30 44 H 4.7839 1.5155 1.1450 0
M  V30 45 H 2.7911 0.2508 -4.3885 0
M  V30 46 C -1.8408 4.2139 -1.1967 0
M  V30 47 C -2.3723 4.9041 -0.0299 0
M  V30 48 C -2.6621 3.3814 -1.9475 0
M  V30 49 C -2.1762 2.7452 -3.0898 0
M  V30 50 H -3.6933 3.2207 -1.6729 0
M  V30 51 C -0.8538 2.9423 -3.4689 0
M  V30 52 C -0.0175 3.7749 -2.7251 0
M  V30 53 H -0.4502 2.4691 -4.3510 0
M  V30 54 C -0.5155 4.4023 -1.5894 0
M  V30 55 C 1.3558 4.0110 -3.1479 0
M  V30 56 H 0.1047 5.0573 -0.9969 0
M  V30 57 C -3.0509 1.9062 -3.8968 0
M  V30 58 H 1.9916 4.5513 -2.4294 0
M  V30 59 H -3.3730 4.5844 0.2999 0
M  V30 60 H -2.5567 1.3207 -4.6875 0
M  V30 61 C -3.8997 -1.7835 5.0589 0
M  V30 62 C -3.8796 -3.1105 4.2735 0
M  V30 63 N -2.6604 -1.1109 4.8271 0
M  V30 64 N -3.8560 -2.8018 2.8785 0
M  V30 65 C -5.1462 -3.9145 4.5791 0
M  V30 66 H -2.9859 -3.6811 4.5854 0
M  V30 67 C -5.2742 -4.1869 6.0728 0
M  V30 68 H -5.1102 -4.8528 4.0213 0
M  V30 69 H -6.0080 -3.3467 4.2240 0
M  V30 70 C -5.2913 -2.8757 6.8512 0
M  V30 71 H -4.4296 -4.7950 6.4052 0
M  V30 72 H -6.1898 -4.7496 6.2656 0
M  V30 73 C -4.0327 -2.0688 6.5574 0
M  V30 74 H -5.3561 -3.0764 7.9225 0
M  V30 75 H -6.1711 -2.2951 6.5641 0
M  V30 76 H -3.1477 -2.6183 6.8826 0
M  V30 77 H -4.0539 -1.1187 7.0955 0
M  V30 78 H -4.7638 -1.1899 4.7093 0
M  V30 79 C 4.6060 0.1315 4.5548 0
M  V30 80 C 5.5301 0.3771 3.3448 0
M  V30 81 N 3.3718 0.8113 4.3168 0
M  V30 82 N 4.9474 -0.2560 2.2039 0
M  V30 83 C 6.9043 -0.2455 3.6058 0
M  V30 84 H 5.6306 1.4687 3.2051 0
M  V30 85 C 7.5310 0.3235 4.8728 0
M  V30 86 H 7.5462 -0.0546 2.7431 0
M  V30 87 H 6.7805 -1.3259 3.6985 0
M  V30 88 C 6.6171 0.0841 6.0698 0
M  V30 89 H 7.6921 1.3969 4.7484 0
M  V30 90 H 8.5026 -0.1446 5.0432 0
M  V30 91 C 5.2470 0.7032 5.8224 0
M  V30 92 H 7.0574 0.5168 6.9703 0
M  V30 93 H 6.5067 -0.9905 6.2326 0
M  V30 94 H 5.3373 1.7844 5.7044 0
M  V30 95 H 4.5833 0.5127 6.6685 0
M  V30 96 H 4.4630 -0.9590 4.6627 0
M  V30 97 C -1.3628 6.2830 2.8781 0
M  V30 98 C -2.3017 6.4969 1.6736 0
M  V30 99 N -1.3670 4.8916 3.2034 0
M  V30 100 N -1.7363 5.8285 0.5443 0
M  V30 101 C -2.4106 7.9912 1.3585 0
M  V30 102 H -3.2963 6.0933 1.9371 0
M  V30 103 C -2.9161 8.7697 2.5669 0
M  V30 104 H -3.0848 8.1233 0.5097 0
M  V30 105 H -1.4244 8.3530 1.0623 0
M  V30 106 C -1.9901 8.5570 3.7597 0
M  V30 107 H -3.9222 8.4298 2.8235 0
M  V30 108 H -2.9728 9.8320 2.3208 0
M  V30 109 C -1.8774 7.0727 4.0846 0
M  V30 110 H -2.3705 9.0949 4.6304 0
M  V30 111 H -0.9998 8.9543 3.5253 0
M  V30 112 H -2.8532 6.6730 4.3663 0
M  V30 113 H -1.1962 6.9161 4.9239 0
M  V30 114 H -0.3550 6.6383 2.5960 0
M  V30 115 C 0.6914 -5.6724 -2.7072 0
M  V30 116 C 2.1069 -5.5244 -2.1135 0
M  V30 117 N -0.2246 -4.9917 -1.8473 0
M  V30 118 N 2.4697 -4.1433 -2.1684 0
M  V30 119 C 3.1068 -6.3305 -2.9470 0
M  V30 120 H 2.0863 -5.9052 -1.0762 0
M  V30 121 C 2.7100 -7.8004 -3.0064 0
M  V30 122 H 4.1004 -6.2206 -2.5071 0
M  V30 123 H 3.1368 -5.9068 -3.9523 0
M  V30 124 C 1.3092 -7.9482 -3.5908 0
M  V30 125 H 2.7293 -8.2234 -1.9994 0
M  V30 126 H 3.4304 -8.3500 -3.6157 0
M  V30 127 C 0.3048 -7.1528 -2.7661 0
M  V30 128 H 1.0185 -9.0005 -3.6067 0
M  V30 129 H 1.3052 -7.5826 -4.6203 0
M  V30 130 H 0.2645 -7.5385 -1.7460 0
M  V30 131 H -0.6954 -7.2380 -3.1964 0
M  V30 132 H 0.6989 -5.2433 -3.7256 0
M  V30 133 C -5.8480 0.0398 -3.6350 0
M  V30 134 C -5.1275 1.0586 -4.5413 0
M  V30 135 N -4.8636 -0.8332 -3.0779 0
M  V30 136 N -4.2980 1.8787 -3.7162 0
M  V30 137 C -6.1568 1.9481 -5.2441 0
M  V30 138 H -4.5396 0.4973 -5.2901 0
M  V30 139 C -7.1345 1.1127 -6.0614 0
M  V30 140 H -5.6291 2.6561 -5.8867 0
M  V30 141 H -6.6925 2.5201 -4.4845 0
M  V30 142 C -7.8457 0.1030 -5.1670 0
M  V30 143 H -6.5914 0.5822 -6.8469 0
M  V30 144 H -7.8642 1.7681 -6.5413 0
M  V30 145 C -6.8304 -0.7906 -4.4654 0
M  V30 146 H -8.5255 -0.5110 -5.7612 0
M  V30 147 H -8.4393 0.6351 -4.4200 0
M  V30 148 H -6.2613 -1.3637 -5.1995 0
M  V30 149 H -7.3363 -1.4993 -3.8062 0
M  V30 150 H -6.3933 0.5998 -2.8537 0
M  V30 151 C 3.8239 2.5614 -4.9314 0
M  V30 152 C 3.1255 3.9105 -4.6661 0
M  V30 153 N 3.9050 1.8521 -3.6937 0
M  V30 154 N 1.7764 3.6435 -4.2778 0
M  V30 155 C 3.1132 4.7499 -5.9465 0
M  V30 156 H 3.6867 4.4383 -3.8737 0
M  V30 157 C 4.5280 4.9802 -6.4632 0
M  V30 158 H 2.6231 5.7032 -5.7371 0
M  V30 159 H 2.5186 4.2250 -6.6961 0
M  V30 160 C 5.2210 3.6471 -6.7234 0
M  V30 161 H 5.0978 5.5468 -5.7230 0
M  V30 162 H 4.4912 5.5694 -7.3817 0
M  V30 163 C 5.2424 2.8046 -5.4540 0
M  V30 164 H 6.2431 3.8165 -7.0680 0
M  V30 165 H 4.6865 3.1077 -7.5088 0
M  V30 166 H 5.8139 3.3115 -4.6744 0
M  V30 167 H 5.7173 1.8397 -5.6439 0
M  V30 168 H 3.2330 2.0106 -5.6855 0
M  V30 END ATOM
M  V30 BEGIN BOND
M  V30 1 1 139 143
M  V30 2 1 160 165
M  V30 3 1 124 129
M  V30 4 1 139 144
M  V30 5 1 160 164
M  V30 6 1 124 128
M  V30 7 1 142 146
M  V30 8 1 157 162
M  V30 9 1 121 126
M  V30 10 1 139 142
M  V30 11 1 137 139
M  V30 12 1 157 160
M  V30 13 1 160 163
M  V30 14 1 121 124
M  V30 15 1 124 127
M  V30 16 1 145 148
M  V30 17 1 155 159
M  V30 18 1 119 123
M  V30 19 1 137 140
M  V30 20 1 134 138
M  V30 21 1 142 145
M  V30 22 1 142 147
M  V30 23 1 151 168
M  V30 24 1 127 131
M  V30 25 1 163 167
M  V30 26 1 115 132
M  V30 27 1 155 157
M  V30 28 1 157 161
M  V30 29 1 119 121
M  V30 30 1 121 125
M  V30 31 1 134 137
M  V30 32 1 137 141
M  V30 33 1 145 149
M  V30 34 1 133 145
M  V30 35 1 151 163
M  V30 36 1 163 166
M  V30 37 1 115 127
M  V30 38 1 127 130
M  V30 39 1 155 158
M  V30 40 1 152 155
M  V30 41 1 119 122
M  V30 42 1 116 119
M  V30 43 1 57 60
M  V30 44 1 27 30
M  V30 45 1 42 45
M  V30 46 1 133 134
M  V30 47 1 134 136
M  V30 48 1 151 152
M  V30 49 1 151 153
M  V30 50 1 115 116
M  V30 51 1 115 117
M  V30 52 1 51 53
M  V30 53 1 21 23
M  V30 54 1 36 38
M  V30 55 1 133 135
M  V30 56 1 133 150
M  V30 57 1 152 154
M  V30 58 1 152 156
M  V30 59 1 116 118
M  V30 60 1 116 120
M  V30 61 2 57 136
M  V30 62 1 49 57
M  V30 63 2 27 117
M  V30 64 1 19 27
M  V30 65 2 42 153
M  V30 66 1 34 42
M  V30 67 2 25 135
M  V30 68 2 55 154
M  V30 69 2 40 118
M  V30 70 2 49 51
M  V30 71 1 51 52
M  V30 72 2 19 21
M  V30 73 1 21 22
M  V30 74 2 34 36
M  V30 75 1 36 37
M  V30 76 1 48 49
M  V30 77 1 18 19
M  V30 78 1 33 34
M  V30 79 1 22 25
M  V30 80 1 25 28
M  V30 81 1 52 55
M  V30 82 1 55 58
M  V30 83 1 37 40
M  V30 84 1 40 43
M  V30 85 2 22 24
M  V30 86 2 52 54
M  V30 87 2 37 39
M  V30 88 1 48 50
M  V30 89 2 46 48
M  V30 90 1 18 20
M  V30 91 2 16 18
M  V30 92 1 33 35
M  V30 93 2 31 33
M  V30 94 1 46 54
M  V30 95 1 54 56
M  V30 96 1 16 24
M  V30 97 1 24 26
M  V30 98 1 31 39
M  V30 99 1 39 41
M  V30 100 1 46 47
M  V30 101 1 16 17
M  V30 102 1 31 32
M  V30 103 1 47 59
M  V30 104 2 47 100
M  V30 105 1 17 29
M  V30 106 2 17 64
M  V30 107 1 32 44
M  V30 108 2 32 82
M  V30 109 1 98 100
M  V30 110 1 62 64
M  V30 111 1 80 82
M  V30 112 1 101 104
M  V30 113 1 65 68
M  V30 114 1 83 86
M  V30 115 1 101 105
M  V30 116 1 65 69
M  V30 117 1 83 87
M  V30 118 1 98 101
M  V30 119 1 98 102
M  V30 120 1 97 98
M  V30 121 1 62 65
M  V30 122 1 62 66
M  V30 123 1 61 62
M  V30 124 1 80 83
M  V30 125 1 80 84
M  V30 126 1 79 80
M  V30 127 1 101 103
M  V30 128 1 65 67
M  V30 129 1 83 85
M  V30 130 1 2 14
M  V30 131 1 12 15
M  V30 132 1 10 13
M  V30 133 1 3 5
M  V30 134 1 3 4
M  V30 135 2 1 3
M  V30 136 2 4 6
M  V30 137 1 4 12
M  V30 138 1 1 9
M  V30 139 1 1 2
M  V30 140 1 6 7
M  V30 141 1 6 8
M  V30 142 2 7 9
M  V30 143 1 9 11
M  V30 144 1 7 10
M  V30 145 2 12 99
M  V30 146 2 2 63
M  V30 147 2 10 81
M  V30 148 1 97 114
M  V30 149 1 61 78
M  V30 150 1 79 96
M  V30 151 1 97 99
M  V30 152 1 61 63
M  V30 153 1 79 81
M  V30 154 1 97 109
M  V30 155 1 61 73
M  V30 156 1 79 91
M  V30 157 1 103 108
M  V30 158 1 103 107
M  V30 159 1 103 106
M  V30 160 1 67 72
M  V30 161 1 67 71
M  V30 162 1 67 70
M  V30 163 1 85 90
M  V30 164 1 85 89
M  V30 165 1 85 88
M  V30 166 1 106 111
M  V30 167 1 70 75
M  V30 168 1 106 109
M  V30 169 1 109 112
M  V30 170 1 109 113
M  V30 171 1 70 73
M  V30 172 1 73 76
M  V30 173 1 73 77
M  V30 174 1 88 93
M  V30 175 1 88 91
M  V30 176 1 91 94
M  V30 177 1 91 95
M  V30 178 1 106 110
M  V30 179 1 70 74
M  V30 180 1 88 92
M  V30 END BOND
M  V30 END CTAB
M  END

$$$$
