
     RDKit          3D

  0  0  0  0  0  0  0  0  0  0999 V3000
M  V30 BEGIN CTAB
M  V30 COUNTS 168 180 0 0 0
M  V30 BEGIN ATOM
M  V30 1 C -2.1859 -0.9155 3.4037 0
M  V30 2 C -3.6292 -1.0813 3.3077 0
M  V30 3 C -1.6350 0.3569 3.4991 0
M  V30 4 C -0.2568 0.5270 3.6306 0
M  V30 5 H -2.2595 1.2370 3.4879 0
M  V30 6 C 0.5683 -0.5910 3.6557 0
M  V30 7 C 0.0298 -1.8744 3.5610 0
M  V30 8 H 1.6377 -0.4924 3.7628 0
M  V30 9 C -1.3452 -2.0283 3.4304 0
M  V30 10 C 0.8929 -3.0451 3.6285 0
M  V30 11 H -1.7924 -3.0081 3.3614 0
M  V30 12 C 0.3135 1.8593 3.7710 0
M  V30 13 H 0.4123 -4.0079 3.3948 0
M  V30 14 H -4.2068 -0.1590 3.1398 0
M  V30 15 H 1.4117 1.9179 3.7165 0
M  V30 16 C -4.2422 -2.5556 -1.0246 0
M  V30 17 C -4.6678 -3.1647 0.2276 0
M  V30 18 C -3.4838 -3.2858 -1.9319 0
M  V30 19 C -3.1027 -2.7276 -3.1521 0
M  V30 20 H -3.1864 -4.3013 -1.7197 0
M  V30 21 C -3.4799 -1.4241 -3.4522 0
M  V30 22 C -4.2411 -0.6789 -2.5515 0
M  V30 23 H -3.2061 -0.9664 -4.3904 0
M  V30 24 C -4.6135 -1.2484 -1.3397 0
M  V30 25 C -4.6686 0.6721 -2.8864 0
M  V30 26 H -5.2076 -0.6997 -0.6249 0
M  V30 27 C -2.3431 -3.5095 -4.1172 0
M  V30 28 H -5.1298 1.2452 -2.0671 0
M  V30 29 H -4.2080 -4.1360 0.4672 0
M  V30 30 H -1.9514 -2.9523 -4.9824 0
M  V30 31 C 3.1698 -2.9179 -0.3862 0
M  V30 32 C 3.6933 -2.9624 0.9717 0
M  V30 33 C 3.5747 -1.9124 -1.2560 0
M  V30 34 C 3.1113 -1.8807 -2.5713 0
M  V30 35 H 4.2647 -1.1455 -0.9390 0
M  V30 36 C 2.2282 -2.8616 -3.0063 0
M  V30 37 C 1.8129 -3.8770 -2.1447 0
M  V30 38 H 1.8569 -2.8680 -4.0196 0
M  V30 39 C 2.2831 -3.8959 -0.8369 0
M  V30 40 C 0.9193 -4.9260 -2.6152 0
M  V30 41 H 1.9852 -4.6719 -0.1485 0
M  V30 42 C 3.5695 -0.8492 -3.4913 0
M  V30 43 H 0.5188 -5.5971 -1.8397 0
M  V30 44 H 4.2616 -2.0761 1.2942 0
M  V30 45 H 3.0434 -0.8015 -4.4574 0
M  V30 46 C -0.2464 3.7006 -0.4255 0
M  V30 47 C -0.6883 4.2000 0.8689 0
M  V30 48 C -1.1619 3.5361 -1.4580 0
M  V30 49 C -0.7454 3.0958 -2.7144 0
M  V30 50 H -2.2084 3.7580 -1.3157 0
M  V30 51 C 0.5983 2.8109 -2.9253 0
M  V30 52 C 1.5288 2.9710 -1.8985 0
M  V30 53 H 0.9525 2.4745 -3.8877 0
M  V30 54 C 1.0992 3.4106 -0.6520 0
M  V30 55 C 2.9418 2.7102 -2.1345 0
M  V30 56 H 1.7957 3.5506 0.1604 0
M  V30 57 C -1.7009 2.9637 -3.8052 0
M  V30 58 H 3.5844 2.7099 -1.2403 0
M  V30 59 H -1.7786 4.2567 1.0126 0
M  V30 60 H -1.3252 2.4668 -4.7131 0
M  V30 61 C -5.6015 -2.3278 3.3589 0
M  V30 62 C -5.9384 -3.2657 2.1820 0
M  V30 63 N -4.1798 -2.2077 3.4387 0
M  V30 64 N -5.5306 -2.6252 0.9715 0
M  V30 65 C -7.4491 -3.5080 2.1266 0
M  V30 66 H -5.4083 -4.2222 2.3419 0
M  V30 67 C -7.9565 -4.1003 3.4356 0
M  V30 68 H -7.6672 -4.1797 1.2935 0
M  V30 69 H -7.9431 -2.5555 1.9269 0
M  V30 70 C -7.6216 -3.1754 4.6008 0
M  V30 71 H -7.4891 -5.0741 3.5995 0
M  V30 72 H -9.0361 -4.2517 3.3752 0
M  V30 73 C -6.1192 -2.9304 4.6678 0
M  V30 74 H -7.9632 -3.6161 5.5396 0
M  V30 75 H -8.1400 -2.2229 4.4684 0
M  V30 76 H -5.5916 -3.8687 4.8467 0
M  V30 77 H -5.8795 -2.2494 5.4873 0
M  V30 78 H -6.0888 -1.3536 3.1727 0
M  V30 79 C 2.9158 -4.1343 4.0377 0
M  V30 80 C 4.0780 -3.9802 3.0358 0
M  V30 81 N 2.1053 -2.9599 3.9625 0
M  V30 82 N 3.5294 -3.9662 1.7164 0
M  V30 83 C 5.0325 -5.1709 3.1601 0
M  V30 84 H 4.6124 -3.0419 3.2709 0
M  V30 85 C 5.5720 -5.2936 4.5797 0
M  V30 86 H 5.8518 -5.0402 2.4499 0
M  V30 87 H 4.4904 -6.0767 2.8828 0
M  V30 88 C 4.4239 -5.4432 5.5721 0
M  V30 89 H 6.1513 -4.4010 4.8271 0
M  V30 90 H 6.2390 -6.1557 4.6451 0
M  V30 91 C 3.4692 -4.2610 5.4596 0
M  V30 92 H 4.8136 -5.5039 6.5902 0
M  V30 93 H 3.8827 -6.3689 5.3636 0
M  V30 94 H 3.9862 -3.3334 5.7112 0
M  V30 95 H 2.6335 -4.3776 6.1530 0
M  V30 96 H 2.3496 -5.0450 3.7702 0
M  V30 97 C 0.1903 4.1628 4.1252 0
M  V30 98 C -0.3448 5.0763 3.0039 0
M  V30 99 N -0.4071 2.8738 3.9717 0
M  V30 100 N 0.1288 4.5710 1.7541 0
M  V30 101 C 0.1877 6.4991 3.1942 0
M  V30 102 H -1.4487 5.0761 3.0578 0
M  V30 103 C -0.2050 7.0523 4.5585 0
M  V30 104 H -0.2080 7.1320 2.3970 0
M  V30 105 H 1.2743 6.4757 3.0951 0
M  V30 106 C 0.3212 6.1486 5.6684 0
M  V30 107 H -1.2937 7.1139 4.6263 0
M  V30 108 H 0.1964 8.0611 4.6742 0
M  V30 109 C -0.2060 4.7301 5.4910 0
M  V30 110 H 0.0148 6.5341 6.6428 0
M  V30 111 H 1.4131 6.1371 5.6396 0
M  V30 112 H -1.2949 4.7203 5.5645 0
M  V30 113 H 0.1884 4.0756 6.2714 0
M  V30 114 H 1.2913 4.1208 4.0386 0
M  V30 115 C -1.4390 -5.4893 -4.9594 0
M  V30 116 C -0.2172 -6.1239 -4.2646 0
M  V30 117 N -2.1729 -4.7509 -3.9807 0
M  V30 118 N 0.6484 -5.0700 -3.8378 0
M  V30 119 C 0.5396 -7.0133 -5.2547 0
M  V30 120 H -0.5810 -6.7295 -3.4147 0
M  V30 121 C -0.3686 -8.0980 -5.8206 0
M  V30 122 H 1.3951 -7.4598 -4.7432 0
M  V30 123 H 0.9222 -6.3835 -6.0598 0
M  V30 124 C -1.5787 -7.4721 -6.5056 0
M  V30 125 H -0.7065 -8.7486 -5.0107 0
M  V30 126 H 0.1903 -8.7095 -6.5319 0
M  V30 127 C -2.3421 -6.5875 -5.5276 0
M  V30 128 H -2.2400 -8.2531 -6.8861 0
M  V30 129 H -1.2445 -6.8714 -7.3547 0
M  V30 130 H -2.7222 -7.1843 -4.6967 0
M  V30 131 H -3.1959 -6.1195 -6.0222 0
M  V30 132 H -1.0723 -4.8418 -5.7763 0
M  V30 133 C -4.9922 2.4639 -4.3465 0
M  V30 134 C -3.7775 3.2880 -4.8194 0
M  V30 135 N -4.5427 1.1403 -4.0499 0
M  V30 136 N -2.8736 3.4179 -3.7205 0
M  V30 137 C -4.2332 4.6848 -5.2505 0
M  V30 138 H -3.3159 2.7609 -5.6741 0
M  V30 139 C -5.2784 4.6023 -6.3562 0
M  V30 140 H -3.3621 5.2496 -5.5895 0
M  V30 141 H -4.6456 5.1961 -4.3789 0
M  V30 142 C -6.4790 3.7853 -5.8909 0
M  V30 143 H -4.8385 4.1308 -7.2381 0
M  V30 144 H -5.5955 5.6088 -6.6364 0
M  V30 145 C -6.0373 2.3912 -5.4632 0
M  V30 146 H -7.2133 3.7064 -6.6950 0
M  V30 147 H -6.9565 4.2901 -5.0479 0
M  V30 148 H -5.6000 1.8578 -6.3091 0
M  V30 149 H -6.8920 1.8120 -5.1074 0
M  V30 150 H -5.4220 2.9629 -3.4591 0
M  V30 151 C 4.9635 0.9056 -4.1421 0
M  V30 152 C 4.7957 2.2927 -3.4893 0
M  V30 153 N 4.5277 -0.0817 -3.2058 0
M  V30 154 N 3.3995 2.5261 -3.2944 0
M  V30 155 C 5.3517 3.3751 -4.4187 0
M  V30 156 H 5.3519 2.2928 -2.5343 0
M  V30 157 C 6.8181 3.1176 -4.7426 0
M  V30 158 H 5.2320 4.3477 -3.9366 0
M  V30 159 H 4.7582 3.3799 -5.3345 0
M  V30 160 C 6.9860 1.7452 -5.3857 0
M  V30 161 H 7.4068 3.1618 -3.8234 0
M  V30 162 H 7.1866 3.8946 -5.4153 0
M  V30 163 C 6.4393 0.6594 -4.4671 0
M  V30 164 H 8.0410 1.5539 -5.5917 0
M  V30 165 H 6.4482 1.7219 -6.3364 0
M  V30 166 H 6.9991 0.6405 -3.5304 0
M  V30 167 H 6.5370 -0.3223 -4.9357 0
M  V30 168 H 4.3643 0.8878 -5.0705 0
M  V30 END ATOM
M  V30 BEGIN BOND
M  V30 1 1 139 143
M  V30 2 1 160 165
M  V30 3 1 124 129
M  V30 4 1 139 144
M  V30 5 1 160 164
M  V30 6 1 124 128
M  V30 7 1 142 146
M  V30 8 1 157 162
M  V30 9 1 121 126
M  V30 10 1 139 142
M  V30 11 1 137 139
M  V30 12 1 157 160
M  V30 13 1 160 163
M  V30 14 1 121 124
M  V30 15 1 124 127
M  V30 16 1 145 148
M  V30 17 1 155 159
M  V30 18 1 119 123
M  V30 19 1 137 140
M  V30 20 1 134 138
M  V30 21 1 142 145
M  V30 22 1 142 147
M  V30 23 1 151 168
M  V30 24 1 127 131
M  V30 25 1 163 167
M  V30 26 1 115 132
M  V30 27 1 155 157
M  V30 28 1 157 161
M  V30 29 1 119 121
M  V30 30 1 121 125
M  V30 31 1 134 137
M  V30 32 1 137 141
M  V30 33 1 145 149
M  V30 34 1 133 145
M  V30 35 1 151 163
M  V30 36 1 163 166
M  V30 37 1 115 127
M  V30 38 1 127 130
M  V30 39 1 155 158
M  V30 40 1 152 155
M  V30 41 1 119 122
M  V30 42 1 116 119
M  V30 43 1 57 60
M  V30 44 1 27 30
M  V30 45 1 42 45
M  V30 46 1 133 134
M  V30 47 1 134 136
M  V30 48 1 151 152
M  V30 49 1 151 153
M  V30 50 1 115 116
M  V30 51 1 115 117
M  V30 52 1 51 53
M  V30 53 1 21 23
M  V30 54 1 36 38
M  V30 55 1 133 135
M  V30 56 1 133 150
M  V30 57 1 152 154
M  V30 58 1 152 156
M  V30 59 1 116 118
M  V30 60 1 116 120
M  V30 61 2 57 136
M  V30 62 1 49 57
M  V30 63 2 27 117
M  V30 64 1 19 27
M  V30 65 2 42 153
M  V30 66 1 34 42
M  V30 67 2 25 135
M  V30 68 2 55 154
M  V30 69 2 40 118
M  V30 70 2 49 51
M  V30 71 1 51 52
M  V30 72 2 19 21
M  V30 73 1 21 22
M  V30 74 2 34 36
M  V30 75 1 36 37
M  V30 76 1 48 49
M  V30 77 1 18 19
M  V30 78 1 33 34
M  V30 79 1 22 25
M  V30 80 1 25 28
M  V30 81 1 52 55
M  V30 82 1 55 58
M  V30 83 1 37 40
M  V30 84 1 40 43
M  V30 85 2 22 24
M  V30 86 2 52 54
M  V30 87 2 37 39
M  V30 88 1 48 50
M  V30 89 2 46 48
M  V30 90 1 18 20
M  V30 91 2 16 18
M  V30 92 1 33 35
M  V30 93 2 31 33
M  V30 94 1 46 54
M  V30 95 1 54 56
M  V30 96 1 16 24
M  V30 97 1 24 26
M  V30 98 1 31 39
M  V30 99 1 39 41
M  V30 100 1 46 47
M  V30 101 1 16 17
M  V30 102 1 31 32
M  V30 103 1 47 59
M  V30 104 2 47 100
M  V30 105 1 17 29
M  V30 106 2 17 64
M  V30 107 1 32 44
M  V30 108 2 32 82
M  V30 109 1 98 100
M  V30 110 1 62 64
M  V30 111 1 80 82
M  V30 112 1 101 104
M  V30 113 1 65 68
M  V30 114 1 83 86
M  V30 115 1 101 105
M  V30 116 1 65 69
M  V30 117 1 83 87
M  V30 118 1 98 101
M  V30 119 1 98 102
M  V30 120 1 97 98
M  V30 121 1 62 65
M  V30 122 1 62 66
M  V30 123 1 61 62
M  V30 124 1 80 83
M  V30 125 1 80 84
M  V30 126 1 79 80
M  V30 127 1 101 103
M  V30 128 1 65 67
M  V30 129 1 83 85
M  V30 130 1 2 14
M  V30 131 1 12 15
M  V30 132 1 10 13
M  V30 133 1 3 5
M  V30 134 1 3 4
M  V30 135 2 1 3
M  V30 136 2 4 6
M  V30 137 1 4 12
M  V30 138 1 1 9
M  V30 139 1 1 2
M  V30 140 1 6 7
M  V30 141 1 6 8
M  V30 142 2 7 9
M  V30 143 1 9 11
M  V30 144 1 7 10
M  V30 145 2 12 99
M  V30 146 2 2 63
M  V30 147 2 10 81
M  V30 148 1 97 114
M  V30 149 1 61 78
M  V30 150 1 79 96
M  V30 151 1 97 99
M  V30 152 1 61 63
M  V30 153 1 79 81
M  V30 154 1 97 109
M  V30 155 1 61 73
M  V30 156 1 79 91
M  V30 157 1 103 108
M  V30 158 1 103 107
M  V30 159 1 103 106
M  V30 160 1 67 72
M  V30 161 1 67 71
M  V30 162 1 67 70
M  V30 163 1 85 90
M  V30 164 1 85 89
M  V30 165 1 85 88
M  V30 166 1 106 111
M  V30 167 1 70 75
M  V30 168 1 106 109
M  V30 169 1 109 112
M  V30 170 1 109 113
M  V30 171 1 70 73
M  V30 172 1 73 76
M  V30 173 1 73 77
M  V30 174 1 88 93
M  V30 175 1 88 91
M  V30 176 1 91 94
M  V30 177 1 91 95
M  V30 178 1 106 110
M  V30 179 1 70 74
M  V30 180 1 88 92
M  V30 END BOND
M  V30 END CTAB
M  END

$$$$
