
     RDKit          3D

  0  0  0  0  0  0  0  0  0  0999 V3000
M  V30 BEGIN CTAB
M  V30 COUNTS 168 180 0 0 0
M  V30 BEGIN ATOM
M  V30 1 C 2.5009 -2.2318 -2.7041 0
M  V30 2 C 1.6847 -3.0125 -3.6229 0
M  V30 3 C 2.9154 -2.7841 -1.4980 0
M  V30 4 C 3.7296 -2.0602 -0.6270 0
M  V30 5 H 2.6295 -3.7859 -1.2162 0
M  V30 6 C 4.1181 -0.7709 -0.9706 0
M  V30 7 C 3.7099 -0.2033 -2.1778 0
M  V30 8 H 4.7528 -0.1881 -0.3209 0
M  V30 9 C 2.8988 -0.9365 -3.0355 0
M  V30 10 C 4.1517 1.1323 -2.5535 0
M  V30 11 H 2.5718 -0.5274 -3.9793 0
M  V30 12 C 4.1954 -2.6566 0.6170 0
M  V30 13 H 3.6665 1.5642 -3.4427 0
M  V30 14 H 1.2891 -3.9598 -3.2249 0
M  V30 15 H 4.7035 -1.9729 1.3147 0
M  V30 16 C -2.4268 -0.9206 -3.4296 0
M  V30 17 C -1.5866 -1.2015 -4.5850 0
M  V30 18 C -2.8600 0.3766 -3.1823 0
M  V30 19 C -3.6973 0.6530 -2.1014 0
M  V30 20 H -2.5712 1.1930 -3.8264 0
M  V30 21 C -4.0898 -0.3824 -1.2617 0
M  V30 22 C -3.6630 -1.6895 -1.4972 0
M  V30 23 H -4.7420 -0.2018 -0.4210 0
M  V30 24 C -2.8291 -1.9497 -2.5781 0
M  V30 25 C -4.1087 -2.7781 -0.6390 0
M  V30 26 H -2.4874 -2.9512 -2.7902 0
M  V30 27 C -4.1820 2.0062 -1.8693 0
M  V30 28 H -3.6088 -3.7466 -0.7957 0
M  V30 29 H -1.1904 -0.3205 -5.1134 0
M  V30 30 H -4.7076 2.1694 -0.9156 0
M  V30 31 C 1.8376 3.8729 0.3537 0
M  V30 32 C 3.2711 3.7780 0.1171 0
M  V30 33 C 1.3340 3.7382 1.6421 0
M  V30 34 C -0.0330 3.8660 1.8883 0
M  V30 35 H 1.9880 3.5470 2.4790 0
M  V30 36 C -0.8951 4.1202 0.8285 0
M  V30 37 C -0.4044 4.2578 -0.4701 0
M  V30 38 H -1.9568 4.2307 0.9875 0
M  V30 39 C 0.9602 4.1281 -0.7001 0
M  V30 40 C -1.3055 4.5642 -1.5720 0
M  V30 41 H 1.3709 4.2356 -1.6924 0
M  V30 42 C -0.5519 3.7648 3.2450 0
M  V30 43 H -0.8667 4.5040 -2.5800 0
M  V30 44 H 3.8738 3.4247 0.9684 0
M  V30 45 H -1.6484 3.7225 3.3363 0
M  V30 46 C 0.3713 -2.8539 3.1960 0
M  V30 47 C 1.2878 -3.9209 2.8197 0
M  V30 48 C -0.9877 -2.9779 2.9328 0
M  V30 49 C -1.8815 -1.9807 3.3232 0
M  V30 50 H -1.3818 -3.8511 2.4358 0
M  V30 51 C -1.4000 -0.8501 3.9719 0
M  V30 52 C -0.0385 -0.7114 4.2426 0
M  V30 53 H -2.0669 -0.0643 4.2919 0
M  V30 54 C 0.8402 -1.7132 3.8480 0
M  V30 55 C 0.4574 0.4556 4.9584 0
M  V30 56 H 1.8979 -1.6381 4.0489 0
M  V30 57 C -3.3095 -2.1329 3.0822 0
M  V30 58 H 1.5524 0.5647 4.9957 0
M  V30 59 H 0.8657 -4.7090 2.1769 0
M  V30 60 H -3.9256 -1.2416 3.2778 0
M  V30 61 C 0.6826 -3.4409 -5.6866 0
M  V30 62 C -0.5433 -2.6130 -6.1224 0
M  V30 63 N 1.4719 -2.6372 -4.8074 0
M  V30 64 N -1.3552 -2.3792 -4.9700 0
M  V30 65 C -1.3617 -3.3983 -7.1508 0
M  V30 66 H -0.1800 -1.6699 -6.5697 0
M  V30 67 C -0.5127 -3.7626 -8.3626 0
M  V30 68 H -2.2195 -2.7938 -7.4532 0
M  V30 69 H -1.7414 -4.3019 -6.6708 0
M  V30 70 C 0.7015 -4.5789 -7.9329 0
M  V30 71 H -0.1783 -2.8493 -8.8602 0
M  V30 72 H -1.1146 -4.3316 -9.0740 0
M  V30 73 C 1.5258 -3.8048 -6.9117 0
M  V30 74 H 1.3209 -4.8148 -8.8006 0
M  V30 75 H 0.3676 -5.5210 -7.4921 0
M  V30 76 H 1.9052 -2.8822 -7.3543 0
M  V30 77 H 2.3832 -4.3970 -6.5850 0
M  V30 78 H 0.3189 -4.3597 -5.1918 0
M  V30 79 C 5.4756 3.0407 -2.3273 0
M  V30 80 C 5.2022 4.0222 -1.1695 0
M  V30 81 N 5.0537 1.7391 -1.9155 0
M  V30 82 N 3.7880 4.1088 -0.9839 0
M  V30 83 C 5.7382 5.4109 -1.5282 0
M  V30 84 H 5.7146 3.6412 -0.2676 0
M  V30 85 C 7.2297 5.3590 -1.8352 0
M  V30 86 H 5.5431 6.0889 -0.6945 0
M  V30 87 H 5.1869 5.7789 -2.3952 0
M  V30 88 C 7.5021 4.3867 -2.9780 0
M  V30 89 H 7.7733 5.0340 -0.9451 0
M  V30 90 H 7.5843 6.3573 -2.0997 0
M  V30 91 C 6.9759 2.9998 -2.6301 0
M  V30 92 H 8.5743 4.3325 -3.1768 0
M  V30 93 H 7.0098 4.7457 -3.8848 0
M  V30 94 H 7.4932 2.6092 -1.7521 0
M  V30 95 H 7.1488 2.3071 -3.4566 0
M  V30 96 H 4.9205 3.3933 -3.2154 0
M  V30 97 C 4.5388 -4.4382 2.0849 0
M  V30 98 C 3.3413 -5.0280 2.8569 0
M  V30 99 N 4.0499 -3.8845 0.8616 0
M  V30 100 N 2.4789 -3.9517 3.2307 0
M  V30 101 C 3.8350 -5.7277 4.1261 0
M  V30 102 H 2.8325 -5.7554 2.1986 0
M  V30 103 C 4.8390 -6.8239 3.7912 0
M  V30 104 H 2.9753 -6.1455 4.6543 0
M  V30 105 H 4.2951 -4.9799 4.7743 0
M  V30 106 C 6.0226 -6.2427 3.0253 0
M  V30 107 H 4.3524 -7.5886 3.1812 0
M  V30 108 H 5.1844 -7.2981 4.7120 0
M  V30 109 C 5.5428 -5.5468 1.7575 0
M  V30 110 H 6.7262 -7.0356 2.7641 0
M  V30 111 H 6.5466 -5.5235 3.6590 0
M  V30 112 H 5.0580 -6.2647 1.0936 0
M  V30 113 H 6.3865 -5.1093 1.2193 0
M  V30 114 H 5.0162 -3.6726 2.7232 0
M  V30 115 C -4.5397 4.2331 -2.4689 0
M  V30 116 C -3.3528 5.2176 -2.4825 0
M  V30 117 N -4.0323 2.9217 -2.7228 0
M  V30 118 N -2.5033 4.9047 -1.3767 0
M  V30 119 C -3.8650 6.6513 -2.3207 0
M  V30 120 H -2.8284 5.1107 -3.4494 0
M  V30 121 C -4.8574 7.0052 -3.4214 0
M  V30 122 H -3.0125 7.3336 -2.3411 0
M  V30 123 H -4.3401 6.7382 -1.3420 0
M  V30 124 C -6.0304 6.0308 -3.4111 0
M  V30 125 H -4.3564 6.9595 -4.3911 0
M  V30 126 H -5.2166 8.0261 -3.2765 0
M  V30 127 C -5.5320 4.6003 -3.5757 0
M  V30 128 H -6.7252 6.2718 -4.2180 0
M  V30 129 H -6.5691 6.1218 -2.4650 0
M  V30 130 H -5.0319 4.4835 -4.5386 0
M  V30 131 H -6.3683 3.8987 -3.5449 0
M  V30 132 H -5.0323 4.3017 -1.4820 0
M  V30 133 C -5.4543 -3.7200 1.0191 0
M  V30 134 C -5.2157 -3.3448 2.4958 0
M  V30 135 N -5.0294 -2.6231 0.2079 0
M  V30 136 N -3.8068 -3.2270 2.7023 0
M  V30 137 C -5.7567 -4.4502 3.4068 0
M  V30 138 H -5.7440 -2.3957 2.6992 0
M  V30 139 C -7.2404 -4.6891 3.1556 0
M  V30 140 H -5.5865 -4.1633 4.4467 0
M  V30 141 H -5.1897 -5.3627 3.2140 0
M  V30 142 C -7.4782 -5.0575 1.6950 0
M  V30 143 H -7.8007 -3.7828 3.3969 0
M  V30 144 H -7.5982 -5.4888 3.8072 0
M  V30 145 C -6.9471 -3.9617 0.7792 0
M  V30 146 H -8.5452 -5.2016 1.5134 0
M  V30 147 H -6.9690 -5.9976 1.4706 0
M  V30 148 H -7.4803 -3.0268 0.9606 0
M  V30 149 H -7.0951 -4.2340 -0.2681 0
M  V30 150 H -4.8830 -4.6406 0.8014 0
M  V30 151 C -0.3364 3.6765 5.5672 0
M  V30 152 C 0.2027 2.3941 6.2329 0
M  V30 153 N 0.2098 3.7561 4.2492 0
M  V30 154 N -0.3215 1.2706 5.5224 0
M  V30 155 C -0.2729 2.3239 7.6866 0
M  V30 156 H 1.3068 2.4266 6.1980 0
M  V30 157 C 0.1741 3.5530 8.4683 0
M  V30 158 H 0.1251 1.4152 8.1431 0
M  V30 159 H -1.3618 2.2508 7.6889 0
M  V30 160 C -0.3559 4.8221 7.8096 0
M  V30 161 H 1.2657 3.5883 8.4976 0
M  V30 162 H -0.1875 3.4848 9.4964 0
M  V30 163 C 0.1150 4.9042 6.3629 0
M  V30 164 H -0.0111 5.7012 8.3576 0
M  V30 165 H -1.4480 4.8159 7.8369 0
M  V30 166 H 1.2044 4.9583 6.3231 0
M  V30 167 H -0.2828 5.8005 5.8820 0
M  V30 168 H -1.4399 3.6195 5.5544 0
M  V30 END ATOM
M  V30 BEGIN BOND
M  V30 1 1 139 143
M  V30 2 1 160 165
M  V30 3 1 124 129
M  V30 4 1 139 144
M  V30 5 1 160 164
M  V30 6 1 124 128
M  V30 7 1 142 146
M  V30 8 1 157 162
M  V30 9 1 121 126
M  V30 10 1 139 142
M  V30 11 1 137 139
M  V30 12 1 157 160
M  V30 13 1 160 163
M  V30 14 1 121 124
M  V30 15 1 124 127
M  V30 16 1 145 148
M  V30 17 1 155 159
M  V30 18 1 119 123
M  V30 19 1 137 140
M  V30 20 1 134 138
M  V30 21 1 142 145
M  V30 22 1 142 147
M  V30 23 1 151 168
M  V30 24 1 127 131
M  V30 25 1 163 167
M  V30 26 1 115 132
M  V30 27 1 155 157
M  V30 28 1 157 161
M  V30 29 1 119 121
M  V30 30 1 121 125
M  V30 31 1 134 137
M  V30 32 1 137 141
M  V30 33 1 145 149
M  V30 34 1 133 145
M  V30 35 1 151 163
M  V30 36 1 163 166
M  V30 37 1 115 127
M  V30 38 1 127 130
M  V30 39 1 155 158
M  V30 40 1 152 155
M  V30 41 1 119 122
M  V30 42 1 116 119
M  V30 43 1 57 60
M  V30 44 1 27 30
M  V30 45 1 42 45
M  V30 46 1 133 134
M  V30 47 1 134 136
M  V30 48 1 151 152
M  V30 49 1 151 153
M  V30 50 1 115 116
M  V30 51 1 115 117
M  V30 52 1 51 53
M  V30 53 1 21 23
M  V30 54 1 36 38
M  V30 55 1 133 135
M  V30 56 1 133 150
M  V30 57 1 152 154
M  V30 58 1 152 156
M  V30 59 1 116 118
M  V30 60 1 116 120
M  V30 61 2 57 136
M  V30 62 1 49 57
M  V30 63 2 27 117
M  V30 64 1 19 27
M  V30 65 2 42 153
M  V30 66 1 34 42
M  V30 67 2 25 135
M  V30 68 2 55 154
M  V30 69 2 40 118
M  V30 70 2 49 51
M  V30 71 1 51 52
M  V30 72 2 19 21
M  V30 73 1 21 22
M  V30 74 2 34 36
M  V30 75 1 36 37
M  V30 76 1 48 49
M  V30 77 1 18 19
M  V30 78 1 33 34
M  V30 79 1 22 25
M  V30 80 1 25 28
M  V30 81 1 52 55
M  V30 82 1 55 58
M  V30 83 1 37 40
M  V30 84 1 40 43
M  V30 85 2 22 24
M  V30 86 2 52 54
M  V30 87 2 37 39
M  V30 88 1 48 50
M  V30 89 2 46 48
M  V30 90 1 18 20
M  V30 91 2 16 18
M  V30 92 1 33 35
M  V30 93 2 31 33
M  V30 94 1 46 54
M  V30 95 1 54 56
M  V30 96 1 16 24
M  V30 97 1 24 26
M  V30 98 1 31 39
M  V30 99 1 39 41
M  V30 100 1 46 47
M  V30 101 1 16 17
M  V30 102 1 31 32
M  V30 103 1 47 59
M  V30 104 2 47 100
M  V30 105 1 17 29
M  V30 106 2 17 64
M  V30 107 1 32 44
M  V30 108 2 32 82
M  V30 109 1 98 100
M  V30 110 1 62 64
M  V30 111 1 80 82
M  V30 112 1 101 104
M  V30 113 1 65 68
M  V30 114 1 83 86
M  V30 115 1 101 105
M  V30 116 1 65 69
M  V30 117 1 83 87
M  V30 118 1 98 101
M  V30 119 1 98 102
M  V30 120 1 97 98
M  V30 121 1 62 65
M  V30 122 1 62 66
M  V30 123 1 61 62
M  V30 124 1 80 83
M  V30 125 1 80 84
M  V30 126 1 79 80
M  V30 127 1 101 103
M  V30 128 1 65 67
M  V30 129 1 83 85
M  V30 130 1 2 14
M  V30 131 1 12 15
M  V30 132 1 10 13
M  V30 133 1 3 5
M  V30 134 1 3 4
M  V30 135 2 1 3
M  V30 136 2 4 6
M  V30 137 1 4 12
M  V30 138 1 1 9
M  V30 139 1 1 2
M  V30 140 1 6 7
M  V30 141 1 6 8
M  V30 142 2 7 9
M  V30 143 1 9 11
M  V30 144 1 7 10
M  V30 145 2 12 99
M  V30 146 2 2 63
M  V30 147 2 10 81
M  V30 148 1 97 114
M  V30 149 1 61 78
M  V30 150 1 79 96
M  V30 151 1 97 99
M  V30 152 1 61 63
M  V30 153 1 79 81
M  V30 154 1 97 109
M  V30 155 1 61 73
M  V30 156 1 79 91
M  V30 157 1 103 108
M  V30 158 1 103 107
M  V30 159 1 103 106
M  V30 160 1 67 72
M  V30 161 1 67 71
M  V30 162 1 67 70
M  V30 163 1 85 90
M  V30 164 1 85 89
M  V30 165 1 85 88
M  V30 166 1 106 111
M  V30 167 1 70 75
M  V30 168 1 106 109
M  V30 169 1 109 112
M  V30 170 1 109 113
M  V30 171 1 70 73
M  V30 172 1 73 76
M  V30 173 1 73 77
M  V30 174 1 88 93
M  V30 175 1 88 91
M  V30 176 1 91 94
M  V30 177 1 91 95
M  V30 178 1 106 110
M  V30 179 1 70 74
M  V30 180 1 88 92
M  V30 END BOND
M  V30 END CTAB
M  END

$$$$
