
     RDKit          3D

  0  0  0  0  0  0  0  0  0  0999 V3000
M  V30 BEGIN CTAB
M  V30 COUNTS 168 180 0 0 0
M  V30 BEGIN ATOM
M  V30 1 C -2.3163 -3.2356 -1.2468 0
M  V30 2 C -1.9400 -3.7288 -2.5641 0
M  V30 3 C -3.3144 -2.2768 -1.1202 0
M  V30 4 C -3.7106 -1.8249 0.1386 0
M  V30 5 H -3.8126 -1.8729 -1.9881 0
M  V30 6 C -3.0899 -2.3355 1.2722 0
M  V30 7 C -2.0865 -3.2983 1.1608 0
M  V30 8 H -3.3786 -2.0106 2.2601 0
M  V30 9 C -1.7022 -3.7389 -0.0999 0
M  V30 10 C -1.4663 -3.8610 2.3519 0
M  V30 11 H -0.9336 -4.4874 -0.2186 0
M  V30 12 C -4.7845 -0.8503 0.2698 0
M  V30 13 H -0.5847 -4.4972 2.1771 0
M  V30 14 H -2.3587 -3.1763 -3.4195 0
M  V30 15 H -4.9326 -0.4344 1.2785 0
M  V30 16 C 2.2896 -1.9833 -3.1822 0
M  V30 17 C 1.8436 -3.3680 -3.2430 0
M  V30 18 C 3.3385 -1.6256 -2.3435 0
M  V30 19 C 3.8014 -0.3103 -2.3048 0
M  V30 20 H 3.8256 -2.3571 -1.7170 0
M  V30 21 C 3.1960 0.6487 -3.1079 0
M  V30 22 C 2.1422 0.3047 -3.9547 0
M  V30 23 H 3.5355 1.6732 -3.1052 0
M  V30 24 C 1.6918 -1.0098 -3.9827 0
M  V30 25 C 1.5370 1.3036 -4.8243 0
M  V30 26 H 0.8829 -1.3082 -4.6318 0
M  V30 27 C 4.9270 0.0522 -1.4554 0
M  V30 28 H 0.6175 0.9919 -5.3438 0
M  V30 29 H 2.2590 -4.0381 -2.4744 0
M  V30 30 H 5.1305 1.1305 -1.3646 0
M  V30 31 C 1.0662 -0.3622 3.9838 0
M  V30 32 C 0.0358 -1.1461 4.6499 0
M  V30 33 C 0.9703 1.0238 3.9444 0
M  V30 34 C 1.9700 1.7890 3.3439 0
M  V30 35 H 0.1311 1.5372 4.3881 0
M  V30 36 C 3.0648 1.1518 2.7724 0
M  V30 37 C 3.1749 -0.2385 2.8042 0
M  V30 38 H 3.8577 1.7163 2.3061 0
M  V30 39 C 2.1710 -0.9879 3.4061 0
M  V30 40 C 4.3427 -0.9004 2.2402 0
M  V30 41 H 2.2306 -2.0645 3.4523 0
M  V30 42 C 1.8860 3.2427 3.3405 0
M  V30 43 H 4.2823 -1.9973 2.1667 0
M  V30 44 H -0.8711 -0.5939 4.9419 0
M  V30 45 H 2.6290 3.7637 2.7169 0
M  V30 46 C -2.8870 3.0414 -1.3327 0
M  V30 47 C -4.1058 2.3658 -1.7550 0
M  V30 48 C -1.9005 3.3443 -2.2634 0
M  V30 49 C -0.7457 4.0259 -1.8793 0
M  V30 50 H -2.0118 3.0731 -3.3020 0
M  V30 51 C -0.5821 4.3934 -0.5491 0
M  V30 52 C -1.5637 4.0958 0.3965 0
M  V30 53 H 0.2971 4.9269 -0.2220 0
M  V30 54 C -2.7091 3.4165 -0.0009 0
M  V30 55 C -1.4075 4.5179 1.7814 0
M  V30 56 H -3.4892 3.1777 0.7056 0
M  V30 57 C 0.2670 4.3776 -2.8647 0
M  V30 58 H -2.1457 4.1132 2.4912 0
M  V30 59 H -4.1012 1.9693 -2.7822 0
M  V30 60 H 1.2115 4.7735 -2.4602 0
M  V30 61 C -0.8739 -5.2090 -4.0196 0
M  V30 62 C 0.6589 -5.1477 -4.1777 0
M  V30 63 N -1.2048 -4.7423 -2.7102 0
M  V30 64 N 1.0559 -3.7755 -4.1387 0
M  V30 65 C 1.0661 -5.7403 -5.5293 0
M  V30 66 H 1.1129 -5.7323 -3.3570 0
M  V30 67 C 0.5784 -7.1774 -5.6658 0
M  V30 68 H 2.1535 -5.6958 -5.6195 0
M  V30 69 H 0.6389 -5.1203 -6.3194 0
M  V30 70 C -0.9369 -7.2402 -5.5068 0
M  V30 71 H 1.0496 -7.7958 -4.8981 0
M  V30 72 H 0.8700 -7.5724 -6.6410 0
M  V30 73 C -1.3532 -6.6561 -4.1625 0
M  V30 74 H -1.2789 -8.2747 -5.5785 0
M  V30 75 H -1.4099 -6.6732 -6.3120 0
M  V30 76 H -0.9250 -7.2423 -3.3476 0
M  V30 77 H -2.4399 -6.6786 -4.0564 0
M  V30 78 H -1.3264 -4.5815 -4.8086 0
M  V30 79 C -1.3066 -4.2407 4.6490 0
M  V30 80 C -0.8370 -3.1016 5.5765 0
M  V30 81 N -1.9307 -3.6539 3.5053 0
M  V30 82 N 0.1892 -2.3719 4.9010 0
M  V30 83 C -0.2571 -3.6878 6.8666 0
M  V30 84 H -1.7104 -2.4662 5.8099 0
M  V30 85 C -1.2822 -4.5608 7.5799 0
M  V30 86 H 0.0619 -2.8674 7.5131 0
M  V30 87 H 0.6262 -4.2754 6.6108 0
M  V30 88 C -1.7497 -5.6861 6.6630 0
M  V30 89 H -2.1400 -3.9503 7.8714 0
M  V30 90 H -0.8411 -4.9761 8.4884 0
M  V30 91 C -2.3325 -5.1136 5.3768 0
M  V30 92 H -2.5036 -6.2929 7.1685 0
M  V30 93 H -0.9032 -6.3333 6.4224 0
M  V30 94 H -3.2085 -4.5018 5.5990 0
M  V30 95 H -2.6466 -5.9182 4.7085 0
M  V30 96 H -0.4238 -4.8457 4.3731 0
M  V30 97 C -6.5725 0.4159 -0.5343 0
M  V30 98 C -6.2963 1.6187 -1.4588 0
M  V30 99 N -5.5145 -0.5291 -0.7063 0
M  V30 100 N -5.1103 2.2701 -0.9996 0
M  V30 101 C -7.4622 2.6086 -1.3859 0
M  V30 102 H -6.1864 1.2405 -2.4914 0
M  V30 103 C -8.7747 1.9372 -1.7707 0
M  V30 104 H -7.2527 3.4480 -2.0523 0
M  V30 105 H -7.5210 2.9962 -0.3674 0
M  V30 106 C -9.0479 0.7457 -0.8591 0
M  V30 107 H -8.7183 1.5956 -2.8070 0
M  V30 108 H -9.5905 2.6593 -1.6989 0
M  V30 109 C -7.8950 -0.2482 -0.9268 0
M  V30 110 H -9.9754 0.2517 -1.1553 0
M  V30 111 H -9.1667 1.0955 0.1690 0
M  V30 112 H -7.7949 -0.6414 -1.9400 0
M  V30 113 H -8.0776 -1.0912 -0.2567 0
M  V30 114 H -6.6299 0.7870 0.5052 0
M  V30 115 C 6.7477 -0.4263 -0.0761 0
M  V30 116 C 6.5024 -0.9421 1.3564 0
M  V30 117 N 5.6381 -0.8192 -0.8859 0
M  V30 118 N 5.3669 -0.2559 1.8874 0
M  V30 119 C 7.7187 -0.6357 2.2344 0
M  V30 120 H 6.3387 -2.0338 1.3056 0
M  V30 121 C 8.9821 -1.2617 1.6568 0
M  V30 122 H 7.5302 -1.0151 3.2410 0
M  V30 123 H 7.8309 0.4479 2.3005 0
M  V30 124 C 9.2246 -0.7549 0.2391 0
M  V30 125 H 8.8743 -2.3487 1.6398 0
M  V30 126 H 9.8355 -1.0185 2.2931 0
M  V30 127 C 8.0211 -1.0584 -0.6449 0
M  V30 128 H 10.1155 -1.2262 -0.1805 0
M  V30 129 H 9.3949 0.3240 0.2638 0
M  V30 130 H 7.8677 -2.1366 -0.7161 0
M  V30 131 H 8.1828 -0.6753 -1.6547 0
M  V30 132 H 6.8588 0.6723 -0.0319 0
M  V30 133 C 1.4418 3.3890 -5.8678 0
M  V30 134 C 1.0690 4.6363 -5.0410 0
M  V30 135 N 2.0535 2.4413 -4.9907 0
M  V30 136 N 0.0589 4.2618 -4.1024 0
M  V30 137 C 0.5070 5.7220 -5.9629 0
M  V30 138 H 1.9833 5.0027 -4.5398 0
M  V30 139 C 1.5093 6.0892 -7.0502 0
M  V30 140 H 0.2571 6.5989 -5.3617 0
M  V30 141 H -0.4157 5.3489 -6.4107 0
M  V30 142 C 1.8810 4.8562 -7.8669 0
M  V30 143 H 2.4090 6.5045 -6.5903 0
M  V30 144 H 1.0805 6.8545 -7.7004 0
M  V30 145 C 2.4455 3.7703 -6.9594 0
M  V30 146 H 2.6192 5.1185 -8.6274 0
M  V30 147 H 0.9923 4.4778 -8.3773 0
M  V30 148 H 3.3610 4.1189 -6.4781 0
M  V30 149 H 2.6907 2.8774 -7.5387 0
M  V30 150 H 0.5182 2.9916 -6.3262 0
M  V30 151 C 0.9938 5.2892 4.0203 0
M  V30 152 C -0.3905 5.7261 3.4997 0
M  V30 153 N 1.0332 3.8609 4.0327 0
M  V30 154 N -0.5005 5.3188 2.1344 0
M  V30 155 C -0.5150 7.2505 3.5710 0
M  V30 156 H -1.1616 5.2540 4.1351 0
M  V30 157 C -0.3042 7.7505 4.9948 0
M  V30 158 H -1.5031 7.5398 3.2069 0
M  V30 159 H 0.2293 7.6879 2.9035 0
M  V30 160 C 1.0631 7.3168 5.5122 0
M  V30 161 H -1.0833 7.3422 5.6428 0
M  V30 162 H -0.3855 8.8391 5.0167 0
M  V30 163 C 1.1965 5.8002 5.4493 0
M  V30 164 H 1.1990 7.6542 6.5416 0
M  V30 165 H 1.8441 7.7762 4.9019 0
M  V30 166 H 0.4509 5.3289 6.0921 0
M  V30 167 H 2.1838 5.4889 5.7972 0
M  V30 168 H 1.7633 5.7180 3.3531 0
M  V30 END ATOM
M  V30 BEGIN BOND
M  V30 1 1 139 143
M  V30 2 1 160 165
M  V30 3 1 124 129
M  V30 4 1 139 144
M  V30 5 1 160 164
M  V30 6 1 124 128
M  V30 7 1 142 146
M  V30 8 1 157 162
M  V30 9 1 121 126
M  V30 10 1 139 142
M  V30 11 1 137 139
M  V30 12 1 157 160
M  V30 13 1 160 163
M  V30 14 1 121 124
M  V30 15 1 124 127
M  V30 16 1 145 148
M  V30 17 1 155 159
M  V30 18 1 119 123
M  V30 19 1 137 140
M  V30 20 1 134 138
M  V30 21 1 142 145
M  V30 22 1 142 147
M  V30 23 1 151 168
M  V30 24 1 127 131
M  V30 25 1 163 167
M  V30 26 1 115 132
M  V30 27 1 155 157
M  V30 28 1 157 161
M  V30 29 1 119 121
M  V30 30 1 121 125
M  V30 31 1 134 137
M  V30 32 1 137 141
M  V30 33 1 145 149
M  V30 34 1 133 145
M  V30 35 1 151 163
M  V30 36 1 163 166
M  V30 37 1 115 127
M  V30 38 1 127 130
M  V30 39 1 155 158
M  V30 40 1 152 155
M  V30 41 1 119 122
M  V30 42 1 116 119
M  V30 43 1 57 60
M  V30 44 1 27 30
M  V30 45 1 42 45
M  V30 46 1 133 134
M  V30 47 1 134 136
M  V30 48 1 151 152
M  V30 49 1 151 153
M  V30 50 1 115 116
M  V30 51 1 115 117
M  V30 52 1 51 53
M  V30 53 1 21 23
M  V30 54 1 36 38
M  V30 55 1 133 135
M  V30 56 1 133 150
M  V30 57 1 152 154
M  V30 58 1 152 156
M  V30 59 1 116 118
M  V30 60 1 116 120
M  V30 61 2 57 136
M  V30 62 1 49 57
M  V30 63 2 27 117
M  V30 64 1 19 27
M  V30 65 2 42 153
M  V30 66 1 34 42
M  V30 67 2 25 135
M  V30 68 2 55 154
M  V30 69 2 40 118
M  V30 70 2 49 51
M  V30 71 1 51 52
M  V30 72 2 19 21
M  V30 73 1 21 22
M  V30 74 2 34 36
M  V30 75 1 36 37
M  V30 76 1 48 49
M  V30 77 1 18 19
M  V30 78 1 33 34
M  V30 79 1 22 25
M  V30 80 1 25 28
M  V30 81 1 52 55
M  V30 82 1 55 58
M  V30 83 1 37 40
M  V30 84 1 40 43
M  V30 85 2 22 24
M  V30 86 2 52 54
M  V30 87 2 37 39
M  V30 88 1 48 50
M  V30 89 2 46 48
M  V30 90 1 18 20
M  V30 91 2 16 18
M  V30 92 1 33 35
M  V30 93 2 31 33
M  V30 94 1 46 54
M  V30 95 1 54 56
M  V30 96 1 16 24
M  V30 97 1 24 26
M  V30 98 1 31 39
M  V30 99 1 39 41
M  V30 100 1 46 47
M  V30 101 1 16 17
M  V30 102 1 31 32
M  V30 103 1 47 59
M  V30 104 2 47 100
M  V30 105 1 17 29
M  V30 106 2 17 64
M  V30 107 1 32 44
M  V30 108 2 32 82
M  V30 109 1 98 100
M  V30 110 1 62 64
M  V30 111 1 80 82
M  V30 112 1 101 104
M  V30 113 1 65 68
M  V30 114 1 83 86
M  V30 115 1 101 105
M  V30 116 1 65 69
M  V30 117 1 83 87
M  V30 118 1 98 101
M  V30 119 1 98 102
M  V30 120 1 97 98
M  V30 121 1 62 65
M  V30 122 1 62 66
M  V30 123 1 61 62
M  V30 124 1 80 83
M  V30 125 1 80 84
M  V30 126 1 79 80
M  V30 127 1 101 103
M  V30 128 1 65 67
M  V30 129 1 83 85
M  V30 130 1 2 14
M  V30 131 1 12 15
M  V30 132 1 10 13
M  V30 133 1 3 5
M  V30 134 1 3 4
M  V30 135 2 1 3
M  V30 136 2 4 6
M  V30 137 1 4 12
M  V30 138 1 1 9
M  V30 139 1 1 2
M  V30 140 1 6 7
M  V30 141 1 6 8
M  V30 142 2 7 9
M  V30 143 1 9 11
M  V30 144 1 7 10
M  V30 145 2 12 99
M  V30 146 2 2 63
M  V30 147 2 10 81
M  V30 148 1 97 114
M  V30 149 1 61 78
M  V30 150 1 79 96
M  V30 151 1 97 99
M  V30 152 1 61 63
M  V30 153 1 79 81
M  V30 154 1 97 109
M  V30 155 1 61 73
M  V30 156 1 79 91
M  V30 157 1 103 108
M  V30 158 1 103 107
M  V30 159 1 103 106
M  V30 160 1 67 72
M  V30 161 1 67 71
M  V30 162 1 67 70
M  V30 163 1 85 90
M  V30 164 1 85 89
M  V30 165 1 85 88
M  V30 166 1 106 111
M  V30 167 1 70 75
M  V30 168 1 106 109
M  V30 169 1 109 112
M  V30 170 1 109 113
M  V30 171 1 70 73
M  V30 172 1 73 76
M  V30 173 1 73 77
M  V30 174 1 88 93
M  V30 175 1 88 91
M  V30 176 1 91 94
M  V30 177 1 91 95
M  V30 178 1 106 110
M  V30 179 1 70 74
M  V30 180 1 88 92
M  V30 END BOND
M  V30 END CTAB
M  END

$$$$
