
     RDKit          3D

  0  0  0  0  0  0  0  0  0  0999 V3000
M  V30 BEGIN CTAB
M  V30 COUNTS 168 180 0 0 0
M  V30 BEGIN ATOM
M  V30 1 C -1.2029 -0.1355 4.1466 0
M  V30 2 C -2.4945 -0.7959 4.2717 0
M  V30 3 C -1.1370 1.2445 3.9962 0
M  V30 4 C 0.0954 1.8928 3.9144 0
M  V30 5 H -2.0334 1.8441 3.9539 0
M  V30 6 C 1.2644 1.1438 3.9745 0
M  V30 7 C 1.2141 -0.2421 4.1253 0
M  V30 8 H 2.2330 1.6169 3.9204 0
M  V30 9 C -0.0210 -0.8741 4.2055 0
M  V30 10 C 2.4408 -1.0196 4.2288 0
M  V30 11 H -0.0928 -1.9440 4.3288 0
M  V30 12 C 0.1616 3.3427 3.7976 0
M  V30 13 H 2.3184 -2.1134 4.1927 0
M  V30 14 H -3.3750 -0.1684 4.0635 0
M  V30 15 H 1.1581 3.7606 3.5863 0
M  V30 16 C -2.8906 -3.1133 0.2979 0
M  V30 17 C -2.9673 -3.6055 1.6660 0
M  V30 18 C -1.9979 -3.6870 -0.5997 0
M  V30 19 C -1.9419 -3.2514 -1.9236 0
M  V30 20 H -1.3412 -4.4883 -0.2974 0
M  V30 21 C -2.7828 -2.2261 -2.3395 0
M  V30 22 C -3.6840 -1.6407 -1.4501 0
M  V30 23 H -2.7678 -1.8715 -3.3587 0
M  V30 24 C -3.7286 -2.0852 -0.1341 0
M  V30 25 C -4.5915 -0.5945 -1.8996 0
M  V30 26 H -4.4192 -1.6566 0.5761 0
M  V30 27 C -1.0343 -3.8824 -2.8713 0
M  V30 28 H -5.1587 -0.0803 -1.1082 0
M  V30 29 H -2.1730 -4.3060 1.9672 0
M  V30 30 H -0.9391 -3.3831 -3.8480 0
M  V30 31 C 4.1876 -0.8195 -0.0405 0
M  V30 32 C 4.8010 -0.4489 1.2269 0
M  V30 33 C 4.1345 0.0980 -1.0831 0
M  V30 34 C 3.5850 -0.2566 -2.3151 0
M  V30 35 H 4.5284 1.0961 -0.9678 0
M  V30 36 C 3.0783 -1.5386 -2.4914 0
M  V30 37 C 3.1245 -2.4702 -1.4541 0
M  V30 38 H 2.6527 -1.8452 -3.4345 0
M  V30 39 C 3.6751 -2.1026 -0.2321 0
M  V30 40 C 2.6295 -3.8248 -1.6549 0
M  V30 41 H 3.7311 -2.8028 0.5874 0
M  V30 42 C 3.5681 0.6943 -3.4177 0
M  V30 43 H 2.5595 -4.4479 -0.7498 0
M  V30 44 H 5.0395 0.6192 1.3483 0
M  V30 45 H 2.9830 0.3934 -4.3005 0
M  V30 46 C -1.3583 4.1322 -0.4897 0
M  V30 47 C -1.8426 4.6666 0.7752 0
M  V30 48 C -2.2354 3.4912 -1.3564 0
M  V30 49 C -1.7927 3.0092 -2.5883 0
M  V30 50 H -3.2768 3.3652 -1.1030 0
M  V30 51 C -0.4578 3.1661 -2.9412 0
M  V30 52 C 0.4344 3.8072 -2.0816 0
M  V30 53 H -0.0863 2.8097 -3.8898 0
M  V30 54 C -0.0211 4.2823 -0.8575 0
M  V30 55 C 1.8231 4.0056 -2.4719 0
M  V30 56 H 0.6431 4.7883 -0.1737 0
M  V30 57 C -2.7233 2.3746 -3.5110 0
M  V30 58 H 2.4939 4.3777 -1.6819 0
M  V30 59 H -2.8656 4.3732 1.0578 0
M  V30 60 H -2.2701 1.8865 -4.3877 0
M  V30 61 C -3.8804 -2.6099 4.7567 0
M  V30 62 C -3.9546 -3.7941 3.7718 0
M  V30 63 N -2.5939 -2.0019 4.6248 0
M  V30 64 N -3.9023 -3.2718 2.4427 0
M  V30 65 C -5.2783 -4.5411 3.9560 0
M  V30 66 H -3.1067 -4.4708 3.9831 0
M  V30 67 C -5.4324 -5.0358 5.3890 0
M  V30 68 H -5.3090 -5.3797 3.2570 0
M  V30 69 H -6.0944 -3.8628 3.7012 0
M  V30 70 C -5.3564 -3.8662 6.3644 0
M  V30 71 H -4.6364 -5.7490 5.6151 0
M  V30 72 H -6.3878 -5.5531 5.4973 0
M  V30 73 C -4.0405 -3.1175 6.1924 0
M  V30 74 H -5.4404 -4.2281 7.3912 0
M  V30 75 H -6.1897 -3.1845 6.1790 0
M  V30 76 H -3.1998 -3.7750 6.4203 0
M  V30 77 H -3.9939 -2.2653 6.8738 0
M  V30 78 H -4.6969 -1.9068 4.5114 0
M  V30 79 C 4.7454 -1.2687 4.4985 0
M  V30 80 C 5.6903 -0.9038 3.3356 0
M  V30 81 N 3.5657 -0.4713 4.3797 0
M  V30 82 N 5.0675 -1.3044 2.1134 0
M  V30 83 C 7.0138 -1.6589 3.4850 0
M  V30 84 H 5.8716 0.1858 3.3690 0
M  V30 85 C 7.6751 -1.3445 4.8212 0
M  V30 86 H 7.6718 -1.3819 2.6585 0
M  V30 87 H 6.8104 -2.7284 3.4071 0
M  V30 88 C 6.7409 -1.7022 5.9722 0
M  V30 89 H 7.9154 -0.2798 4.8665 0
M  V30 90 H 8.6089 -1.9037 4.9085 0
M  V30 91 C 5.4212 -0.9529 5.8355 0
M  V30 92 H 7.2080 -1.4505 6.9264 0
M  V30 93 H 6.5510 -2.7779 5.9643 0
M  V30 94 H 5.5914 0.1238 5.8889 0
M  V30 95 H 4.7416 -1.2253 6.6459 0
M  V30 96 H 4.5220 -2.3492 4.4340 0
M  V30 97 C -0.7469 5.4915 3.8568 0
M  V30 98 C -1.6623 5.9612 2.7081 0
M  V30 99 N -0.8550 4.0703 3.9586 0
M  V30 100 N -1.1428 5.4397 1.4833 0
M  V30 101 C -1.6595 7.4904 2.6333 0
M  V30 102 H -2.6850 5.5951 2.9119 0
M  V30 103 C -2.1115 8.1034 3.9531 0
M  V30 104 H -2.3185 7.8039 1.8209 0
M  V30 105 H -0.6481 7.8210 2.3906 0
M  V30 106 C -1.2089 7.6377 5.0905 0
M  V30 107 H -3.1410 7.8020 4.1602 0
M  V30 108 H -2.0889 9.1924 3.8780 0
M  V30 109 C -1.2073 6.1165 5.1765 0
M  V30 110 H -1.5525 8.0579 6.0379 0
M  V30 111 H -0.1911 7.9933 4.9145 0
M  V30 112 H -2.2110 5.7501 5.3988 0
M  V30 113 H -0.5431 5.7798 5.9755 0
M  V30 114 H 0.2855 5.8119 3.6268 0
M  V30 115 C 0.4456 -5.5507 -3.5591 0
M  V30 116 C 1.8656 -5.6026 -2.9598 0
M  V30 117 N -0.4215 -4.9489 -2.5959 0
M  V30 118 N 2.3293 -4.2605 -2.7989 0
M  V30 119 C 2.8070 -6.3382 -3.9173 0
M  V30 120 H 1.8125 -6.1397 -1.9955 0
M  V30 121 C 2.3033 -7.7472 -4.2050 0
M  V30 122 H 3.8041 -6.3723 -3.4730 0
M  V30 123 H 2.8726 -5.7645 -4.8435 0
M  V30 124 C 0.8980 -7.6977 -4.7950 0
M  V30 125 H 2.2871 -8.3240 -3.2774 0
M  V30 126 H 2.9840 -8.2451 -4.8986 0
M  V30 127 C -0.0487 -6.9708 -3.8478 0
M  V30 128 H 0.5308 -8.7101 -4.9746 0
M  V30 129 H 0.9255 -7.1749 -5.7539 0
M  V30 130 H -0.1216 -7.5088 -2.9011 0
M  V30 131 H -1.0505 -6.9135 -4.2788 0
M  V30 132 H 0.4891 -4.9680 -4.4971 0
M  V30 133 C -5.6514 0.7007 -3.5263 0
M  V30 134 C -4.8539 1.7940 -4.2659 0
M  V30 135 N -4.7363 -0.3192 -3.1211 0
M  V30 136 N -3.9698 2.4105 -3.3279 0
M  V30 137 C -5.8119 2.8564 -4.8120 0
M  V30 138 H -4.3056 1.3164 -5.0981 0
M  V30 139 C -6.8448 2.2345 -5.7436 0
M  V30 140 H -5.2306 3.6163 -5.3387 0
M  V30 141 H -6.3073 3.3391 -3.9678 0
M  V30 142 C -7.6323 1.1513 -5.0144 0
M  V30 143 H -6.3389 1.7962 -6.6070 0
M  V30 144 H -7.5222 3.0092 -6.1088 0
M  V30 145 C -6.6886 0.0860 -4.4701 0
M  V30 146 H -8.3528 0.6903 -5.6930 0
M  V30 147 H -8.1884 1.6009 -4.1885 0
M  V30 148 H -6.1601 -0.4042 -5.2895 0
M  V30 149 H -7.2482 -0.6787 -3.9272 0
M  V30 150 H -6.1573 1.1688 -2.6625 0
M  V30 151 C 4.1855 2.6785 -4.4798 0
M  V30 152 C 3.5871 4.0164 -3.9999 0
M  V30 153 N 4.2088 1.7788 -3.3701 0
M  V30 154 N 2.2204 3.7912 -3.6487 0
M  V30 155 C 3.6423 5.0460 -5.1318 0
M  V30 156 H 4.1823 4.3700 -3.1384 0
M  V30 157 C 5.0724 5.2505 -5.6161 0
M  V30 158 H 3.2228 5.9876 -4.7711 0
M  V30 159 H 3.0139 4.6911 -5.9504 0
M  V30 160 C 5.6665 3.9279 -6.0884 0
M  V30 161 H 5.6792 5.6498 -4.8000 0
M  V30 162 H 5.0831 5.9784 -6.4299 0
M  V30 163 C 5.6203 2.8964 -4.9679 0
M  V30 164 H 6.6998 4.0742 -6.4094 0
M  V30 165 H 5.0971 3.5600 -6.9451 0
M  V30 166 H 6.2241 3.2305 -4.1224 0
M  V30 167 H 6.0237 1.9413 -5.3111 0
M  V30 168 H 3.5589 2.2985 -5.3070 0
M  V30 END ATOM
M  V30 BEGIN BOND
M  V30 1 1 139 143
M  V30 2 1 160 165
M  V30 3 1 124 129
M  V30 4 1 139 144
M  V30 5 1 160 164
M  V30 6 1 124 128
M  V30 7 1 142 146
M  V30 8 1 157 162
M  V30 9 1 121 126
M  V30 10 1 139 142
M  V30 11 1 137 139
M  V30 12 1 157 160
M  V30 13 1 160 163
M  V30 14 1 121 124
M  V30 15 1 124 127
M  V30 16 1 145 148
M  V30 17 1 155 159
M  V30 18 1 119 123
M  V30 19 1 137 140
M  V30 20 1 134 138
M  V30 21 1 142 145
M  V30 22 1 142 147
M  V30 23 1 151 168
M  V30 24 1 127 131
M  V30 25 1 163 167
M  V30 26 1 115 132
M  V30 27 1 155 157
M  V30 28 1 157 161
M  V30 29 1 119 121
M  V30 30 1 121 125
M  V30 31 1 134 137
M  V30 32 1 137 141
M  V30 33 1 145 149
M  V30 34 1 133 145
M  V30 35 1 151 163
M  V30 36 1 163 166
M  V30 37 1 115 127
M  V30 38 1 127 130
M  V30 39 1 155 158
M  V30 40 1 152 155
M  V30 41 1 119 122
M  V30 42 1 116 119
M  V30 43 1 57 60
M  V30 44 1 27 30
M  V30 45 1 42 45
M  V30 46 1 133 134
M  V30 47 1 134 136
M  V30 48 1 151 152
M  V30 49 1 151 153
M  V30 50 1 115 116
M  V30 51 1 115 117
M  V30 52 1 51 53
M  V30 53 1 21 23
M  V30 54 1 36 38
M  V30 55 1 133 135
M  V30 56 1 133 150
M  V30 57 1 152 154
M  V30 58 1 152 156
M  V30 59 1 116 118
M  V30 60 1 116 120
M  V30 61 2 57 136
M  V30 62 1 49 57
M  V30 63 2 27 117
M  V30 64 1 19 27
M  V30 65 2 42 153
M  V30 66 1 34 42
M  V30 67 2 25 135
M  V30 68 2 55 154
M  V30 69 2 40 118
M  V30 70 2 49 51
M  V30 71 1 51 52
M  V30 72 2 19 21
M  V30 73 1 21 22
M  V30 74 2 34 36
M  V30 75 1 36 37
M  V30 76 1 48 49
M  V30 77 1 18 19
M  V30 78 1 33 34
M  V30 79 1 22 25
M  V30 80 1 25 28
M  V30 81 1 52 55
M  V30 82 1 55 58
M  V30 83 1 37 40
M  V30 84 1 40 43
M  V30 85 2 22 24
M  V30 86 2 52 54
M  V30 87 2 37 39
M  V30 88 1 48 50
M  V30 89 2 46 48
M  V30 90 1 18 20
M  V30 91 2 16 18
M  V30 92 1 33 35
M  V30 93 2 31 33
M  V30 94 1 46 54
M  V30 95 1 54 56
M  V30 96 1 16 24
M  V30 97 1 24 26
M  V30 98 1 31 39
M  V30 99 1 39 41
M  V30 100 1 46 47
M  V30 101 1 16 17
M  V30 102 1 31 32
M  V30 103 1 47 59
M  V30 104 2 47 100
M  V30 105 1 17 29
M  V30 106 2 17 64
M  V30 107 1 32 44
M  V30 108 2 32 82
M  V30 109 1 98 100
M  V30 110 1 62 64
M  V30 111 1 80 82
M  V30 112 1 101 104
M  V30 113 1 65 68
M  V30 114 1 83 86
M  V30 115 1 101 105
M  V30 116 1 65 69
M  V30 117 1 83 87
M  V30 118 1 98 101
M  V30 119 1 98 102
M  V30 120 1 97 98
M  V30 121 1 62 65
M  V30 122 1 62 66
M  V30 123 1 61 62
M  V30 124 1 80 83
M  V30 125 1 80 84
M  V30 126 1 79 80
M  V30 127 1 101 103
M  V30 128 1 65 67
M  V30 129 1 83 85
M  V30 130 1 2 14
M  V30 131 1 12 15
M  V30 132 1 10 13
M  V30 133 1 3 5
M  V30 134 1 3 4
M  V30 135 2 1 3
M  V30 136 2 4 6
M  V30 137 1 4 12
M  V30 138 1 1 9
M  V30 139 1 1 2
M  V30 140 1 6 7
M  V30 141 1 6 8
M  V30 142 2 7 9
M  V30 143 1 9 11
M  V30 144 1 7 10
M  V30 145 2 12 99
M  V30 146 2 2 63
M  V30 147 2 10 81
M  V30 148 1 97 114
M  V30 149 1 61 78
M  V30 150 1 79 96
M  V30 151 1 97 99
M  V30 152 1 61 63
M  V30 153 1 79 81
M  V30 154 1 97 109
M  V30 155 1 61 73
M  V30 156 1 79 91
M  V30 157 1 103 108
M  V30 158 1 103 107
M  V30 159 1 103 106
M  V30 160 1 67 72
M  V30 161 1 67 71
M  V30 162 1 67 70
M  V30 163 1 85 90
M  V30 164 1 85 89
M  V30 165 1 85 88
M  V30 166 1 106 111
M  V30 167 1 70 75
M  V30 168 1 106 109
M  V30 169 1 109 112
M  V30 170 1 109 113
M  V30 171 1 70 73
M  V30 172 1 73 76
M  V30 173 1 73 77
M  V30 174 1 88 93
M  V30 175 1 88 91
M  V30 176 1 91 94
M  V30 177 1 91 95
M  V30 178 1 106 110
M  V30 179 1 70 74
M  V30 180 1 88 92
M  V30 END BOND
M  V30 END CTAB
M  END

$$$$
