
     RDKit          3D

  0  0  0  0  0  0  0  0  0  0999 V3000
M  V30 BEGIN CTAB
M  V30 COUNTS 168 180 0 0 0
M  V30 BEGIN ATOM
M  V30 1 C -2.6721 2.6104 2.1432 0
M  V30 2 C -3.2983 3.5561 1.2303 0
M  V30 3 C -1.4770 2.9364 2.7733 0
M  V30 4 C -0.8874 2.0549 3.6793 0
M  V30 5 H -0.9881 3.8803 2.5871 0
M  V30 6 C -1.5015 0.8363 3.9422 0
M  V30 7 C -2.7012 0.4952 3.3175 0
M  V30 8 H -1.0734 0.1359 4.6429 0
M  V30 9 C -3.2769 1.3836 2.4170 0
M  V30 10 C -3.3632 -0.7646 3.6254 0
M  V30 11 H -4.2078 1.1513 1.9225 0
M  V30 12 C 0.3434 2.4166 4.3683 0
M  V30 13 H -4.2184 -1.0253 2.9826 0
M  V30 14 H -2.6873 4.4288 0.9519 0
M  V30 15 H 0.8223 1.6114 4.9468 0
M  V30 16 C -2.7739 1.5535 -2.8967 0
M  V30 17 C -3.9899 2.0116 -2.2399 0
M  V30 18 C -2.6781 0.2430 -3.3493 0
M  V30 19 C -1.5342 -0.1977 -4.0149 0
M  V30 20 H -3.4885 -0.4558 -3.2091 0
M  V30 21 C -0.4797 0.6851 -4.2148 0
M  V30 22 C -0.5615 2.0035 -3.7662 0
M  V30 23 H 0.4158 0.3761 -4.7318 0
M  V30 24 C -1.7075 2.4284 -3.1048 0
M  V30 25 C 0.5287 2.9367 -4.0130 0
M  V30 26 H -1.8033 3.4437 -2.7515 0
M  V30 27 C -1.4538 -1.5597 -4.5235 0
M  V30 28 H 0.4548 3.9064 -3.4966 0
M  V30 29 H -4.7167 1.2268 -1.9786 0
M  V30 30 H -0.4667 -1.8739 -4.8966 0
M  V30 31 C -0.6099 -3.9152 1.6734 0
M  V30 32 C -1.0631 -3.8124 3.0532 0
M  V30 33 C 0.7486 -3.9945 1.3907 0
M  V30 34 C 1.1946 -4.1327 0.0763 0
M  V30 35 H 1.4847 -3.9655 2.1794 0
M  V30 36 C 0.2661 -4.1807 -0.9565 0
M  V30 37 C -1.1006 -4.1022 -0.6883 0
M  V30 38 H 0.5793 -4.2935 -1.9832 0
M  V30 39 C -1.5302 -3.9648 0.6264 0
M  V30 40 C -2.0723 -4.1933 -1.7690 0
M  V30 41 H -2.5809 -3.9079 0.8664 0
M  V30 42 C 2.6164 -4.2565 -0.2122 0
M  V30 43 H -3.1149 -3.9693 -1.4953 0
M  V30 44 H -0.2775 -3.6252 3.8018 0
M  V30 45 H 2.8951 -4.2065 -1.2763 0
M  V30 46 C 3.5204 2.2488 1.0228 0
M  V30 47 C 3.1801 3.3444 1.9195 0
M  V30 48 C 3.5122 2.4465 -0.3528 0
M  V30 49 C 3.8741 1.4167 -1.2213 0
M  V30 50 H 3.2408 3.4009 -0.7771 0
M  V30 51 C 4.2352 0.1805 -0.6993 0
M  V30 52 C 4.2480 -0.0329 0.6792 0
M  V30 53 H 4.5261 -0.6339 -1.3449 0
M  V30 54 C 3.8852 1.0025 1.5324 0
M  V30 55 C 4.6658 -1.3169 1.2243 0
M  V30 56 H 3.8914 0.8704 2.6035 0
M  V30 57 C 3.9036 1.6397 -2.6599 0
M  V30 58 H 4.5011 -1.4548 2.3042 0
M  V30 59 H 2.7576 4.2409 1.4398 0
M  V30 60 H 4.0475 0.7418 -3.2807 0
M  V30 61 C -5.0648 4.3572 -0.0673 0
M  V30 62 C -5.4222 3.6445 -1.3874 0
M  V30 63 N -4.4765 3.3963 0.8115 0
M  V30 64 N -4.2059 3.2328 -2.0144 0
M  V30 65 C -6.1538 4.6138 -2.3198 0
M  V30 66 H -6.0750 2.7853 -1.1486 0
M  V30 67 C -7.4120 5.1635 -1.6592 0
M  V30 68 H -6.4054 4.0898 -3.2443 0
M  V30 69 H -5.4730 5.4288 -2.5715 0
M  V30 70 C -7.0607 5.8661 -0.3523 0
M  V30 71 H -8.1039 4.3429 -1.4554 0
M  V30 72 H -7.9079 5.8602 -2.3382 0
M  V30 73 C -6.3352 4.9089 0.5854 0
M  V30 74 H -7.9678 6.2349 0.1308 0
M  V30 75 H -6.4193 6.7249 -0.5631 0
M  V30 76 H -6.9828 4.0688 0.8418 0
M  V30 77 H -6.0619 5.4167 1.5128 0
M  V30 78 H -4.3700 5.1843 -0.3002 0
M  V30 79 C -3.6830 -2.7121 4.8708 0
M  V30 80 C -2.6764 -3.8728 4.7378 0
M  V30 81 N -2.9951 -1.4923 4.5865 0
M  V30 82 N -2.2745 -3.9591 3.3692 0
M  V30 83 C -3.3463 -5.1900 5.1387 0
M  V30 84 H -1.8218 -3.6651 5.4069 0
M  V30 85 C -3.8849 -5.1186 6.5622 0
M  V30 86 H -2.6170 -5.9976 5.0462 0
M  V30 87 H -4.1583 -5.3902 4.4376 0
M  V30 88 C -4.8784 -3.9695 6.6961 0
M  V30 89 H -3.0563 -4.9646 7.2573 0
M  V30 90 H -4.3678 -6.0637 6.8191 0
M  V30 91 C -4.2208 -2.6524 6.3030 0
M  V30 92 H -5.2413 -3.9054 7.7239 0
M  V30 93 H -5.7373 -4.1552 6.0472 0
M  V30 94 H -3.3887 -2.4312 6.9737 0
M  V30 95 H -4.9370 -1.8312 6.3756 0
M  V30 96 H -4.5124 -2.8933 4.1632 0
M  V30 97 C 2.0101 3.9092 5.0322 0
M  V30 98 C 3.0586 4.3828 4.0054 0
M  V30 99 N 0.8105 3.5865 4.3260 0
M  V30 100 N 3.3859 3.2773 3.1612 0
M  V30 101 C 4.3265 4.8412 4.7311 0
M  V30 102 H 2.6253 5.2242 3.4347 0
M  V30 103 C 4.0166 5.9564 5.7221 0
M  V30 104 H 5.0529 5.1802 3.9895 0
M  V30 105 H 4.7547 3.9825 5.2512 0
M  V30 106 C 2.9778 5.4905 6.7366 0
M  V30 107 H 3.6328 6.8257 5.1830 0
M  V30 108 H 4.9330 6.2564 6.2344 0
M  V30 109 C 1.7097 5.0353 6.0251 0
M  V30 110 H 2.7390 6.3010 7.4281 0
M  V30 111 H 3.3860 4.6611 7.3187 0
M  V30 112 H 1.2653 5.8678 5.4766 0
M  V30 113 H 0.9727 4.6791 6.7483 0
M  V30 114 H 2.4228 3.0343 5.5667 0
M  V30 115 C -2.3488 -3.6407 -5.0844 0
M  V30 116 C -2.7245 -4.6340 -3.9661 0
M  V30 117 N -2.4611 -2.3167 -4.5590 0
M  V30 118 N -1.7395 -4.5360 -2.9355 0
M  V30 119 C -2.7213 -6.0624 -4.5172 0
M  V30 120 H -3.7337 -4.3730 -3.5991 0
M  V30 121 C -3.6845 -6.1985 -5.6900 0
M  V30 122 H -2.9974 -6.7495 -3.7144 0
M  V30 123 H -1.7056 -6.3069 -4.8328 0
M  V30 124 C -3.3160 -5.2150 -6.7956 0
M  V30 125 H -4.7027 -5.9967 -5.3496 0
M  V30 126 H -3.6543 -7.2209 -6.0722 0
M  V30 127 C -3.3201 -3.7889 -6.2588 0
M  V30 128 H -4.0244 -5.2973 -7.6222 0
M  V30 129 H -2.3220 -5.4564 -7.1793 0
M  V30 130 H -4.3198 -3.5183 -5.9146 0
M  V30 131 H -3.0335 -3.0849 -7.0429 0
M  V30 132 H -1.3191 -3.8683 -5.4150 0
M  V30 133 C 2.5217 3.6069 -5.0257 0
M  V30 134 C 3.8542 2.9766 -4.5722 0
M  V30 135 N 1.4794 2.6578 -4.7923 0
M  V30 136 N 3.8001 2.7938 -3.1562 0
M  V30 137 C 5.0144 3.9193 -4.9036 0
M  V30 138 H 3.9815 2.0185 -5.1080 0
M  V30 139 C 5.0577 4.2307 -6.3944 0
M  V30 140 H 5.9486 3.4530 -4.5832 0
M  V30 141 H 4.8849 4.8387 -4.3297 0
M  V30 142 C 3.7397 4.8515 -6.8449 0
M  V30 143 H 5.2344 3.3089 -6.9535 0
M  V30 144 H 5.8842 4.9133 -6.6023 0
M  V30 145 C 2.5781 3.9193 -6.5236 0
M  V30 146 H 3.7654 5.0483 -7.9185 0
M  V30 147 H 3.5937 5.8048 -6.3317 0
M  V30 148 H 2.6872 2.9791 -7.0671 0
M  V30 149 H 1.6306 4.3720 -6.8240 0
M  V30 150 H 2.3687 4.5384 -4.4512 0
M  V30 151 C 4.8517 -4.5761 0.3776 0
M  V30 152 C 5.6229 -3.4406 1.0804 0
M  V30 153 N 3.4666 -4.4386 0.7003 0
M  V30 154 N 5.2076 -2.1997 0.5061 0
M  V30 155 C 7.1266 -3.6126 0.8486 0
M  V30 156 H 5.3993 -3.4908 2.1615 0
M  V30 157 C 7.6063 -4.9680 1.3529 0
M  V30 158 H 7.6556 -2.8056 1.3599 0
M  V30 159 H 7.3227 -3.5170 -0.2207 0
M  V30 160 C 6.8427 -6.0919 0.6609 0
M  V30 161 H 7.4467 -5.0318 2.4319 0
M  V30 162 H 8.6770 -5.0708 1.1650 0
M  V30 163 C 5.3445 -5.9328 0.8886 0
M  V30 164 H 7.1708 -7.0600 1.0446 0
M  V30 165 H 7.0524 -6.0664 -0.4110 0
M  V30 166 H 5.1150 -6.0031 1.9533 0
M  V30 167 H 4.7939 -6.7233 0.3742 0
M  V30 168 H 5.0329 -4.4935 -0.7094 0
M  V30 END ATOM
M  V30 BEGIN BOND
M  V30 1 1 139 143
M  V30 2 1 160 165
M  V30 3 1 124 129
M  V30 4 1 139 144
M  V30 5 1 160 164
M  V30 6 1 124 128
M  V30 7 1 142 146
M  V30 8 1 157 162
M  V30 9 1 121 126
M  V30 10 1 139 142
M  V30 11 1 137 139
M  V30 12 1 157 160
M  V30 13 1 160 163
M  V30 14 1 121 124
M  V30 15 1 124 127
M  V30 16 1 145 148
M  V30 17 1 155 159
M  V30 18 1 119 123
M  V30 19 1 137 140
M  V30 20 1 134 138
M  V30 21 1 142 145
M  V30 22 1 142 147
M  V30 23 1 151 168
M  V30 24 1 127 131
M  V30 25 1 163 167
M  V30 26 1 115 132
M  V30 27 1 155 157
M  V30 28 1 157 161
M  V30 29 1 119 121
M  V30 30 1 121 125
M  V30 31 1 134 137
M  V30 32 1 137 141
M  V30 33 1 145 149
M  V30 34 1 133 145
M  V30 35 1 151 163
M  V30 36 1 163 166
M  V30 37 1 115 127
M  V30 38 1 127 130
M  V30 39 1 155 158
M  V30 40 1 152 155
M  V30 41 1 119 122
M  V30 42 1 116 119
M  V30 43 1 57 60
M  V30 44 1 27 30
M  V30 45 1 42 45
M  V30 46 1 133 134
M  V30 47 1 134 136
M  V30 48 1 151 152
M  V30 49 1 151 153
M  V30 50 1 115 116
M  V30 51 1 115 117
M  V30 52 1 51 53
M  V30 53 1 21 23
M  V30 54 1 36 38
M  V30 55 1 133 135
M  V30 56 1 133 150
M  V30 57 1 152 154
M  V30 58 1 152 156
M  V30 59 1 116 118
M  V30 60 1 116 120
M  V30 61 2 57 136
M  V30 62 1 49 57
M  V30 63 2 27 117
M  V30 64 1 19 27
M  V30 65 2 42 153
M  V30 66 1 34 42
M  V30 67 2 25 135
M  V30 68 2 55 154
M  V30 69 2 40 118
M  V30 70 2 49 51
M  V30 71 1 51 52
M  V30 72 2 19 21
M  V30 73 1 21 22
M  V30 74 2 34 36
M  V30 75 1 36 37
M  V30 76 1 48 49
M  V30 77 1 18 19
M  V30 78 1 33 34
M  V30 79 1 22 25
M  V30 80 1 25 28
M  V30 81 1 52 55
M  V30 82 1 55 58
M  V30 83 1 37 40
M  V30 84 1 40 43
M  V30 85 2 22 24
M  V30 86 2 52 54
M  V30 87 2 37 39
M  V30 88 1 48 50
M  V30 89 2 46 48
M  V30 90 1 18 20
M  V30 91 2 16 18
M  V30 92 1 33 35
M  V30 93 2 31 33
M  V30 94 1 46 54
M  V30 95 1 54 56
M  V30 96 1 16 24
M  V30 97 1 24 26
M  V30 98 1 31 39
M  V30 99 1 39 41
M  V30 100 1 46 47
M  V30 101 1 16 17
M  V30 102 1 31 32
M  V30 103 1 47 59
M  V30 104 2 47 100
M  V30 105 1 17 29
M  V30 106 2 17 64
M  V30 107 1 32 44
M  V30 108 2 32 82
M  V30 109 1 98 100
M  V30 110 1 62 64
M  V30 111 1 80 82
M  V30 112 1 101 104
M  V30 113 1 65 68
M  V30 114 1 83 86
M  V30 115 1 101 105
M  V30 116 1 65 69
M  V30 117 1 83 87
M  V30 118 1 98 101
M  V30 119 1 98 102
M  V30 120 1 97 98
M  V30 121 1 62 65
M  V30 122 1 62 66
M  V30 123 1 61 62
M  V30 124 1 80 83
M  V30 125 1 80 84
M  V30 126 1 79 80
M  V30 127 1 101 103
M  V30 128 1 65 67
M  V30 129 1 83 85
M  V30 130 1 2 14
M  V30 131 1 12 15
M  V30 132 1 10 13
M  V30 133 1 3 5
M  V30 134 1 3 4
M  V30 135 2 1 3
M  V30 136 2 4 6
M  V30 137 1 4 12
M  V30 138 1 1 9
M  V30 139 1 1 2
M  V30 140 1 6 7
M  V30 141 1 6 8
M  V30 142 2 7 9
M  V30 143 1 9 11
M  V30 144 1 7 10
M  V30 145 2 12 99
M  V30 146 2 2 63
M  V30 147 2 10 81
M  V30 148 1 97 114
M  V30 149 1 61 78
M  V30 150 1 79 96
M  V30 151 1 97 99
M  V30 152 1 61 63
M  V30 153 1 79 81
M  V30 154 1 97 109
M  V30 155 1 61 73
M  V30 156 1 79 91
M  V30 157 1 103 108
M  V30 158 1 103 107
M  V30 159 1 103 106
M  V30 160 1 67 72
M  V30 161 1 67 71
M  V30 162 1 67 70
M  V30 163 1 85 90
M  V30 164 1 85 89
M  V30 165 1 85 88
M  V30 166 1 106 111
M  V30 167 1 70 75
M  V30 168 1 106 109
M  V30 169 1 109 112
M  V30 170 1 109 113
M  V30 171 1 70 73
M  V30 172 1 73 76
M  V30 173 1 73 77
M  V30 174 1 88 93
M  V30 175 1 88 91
M  V30 176 1 91 94
M  V30 177 1 91 95
M  V30 178 1 106 110
M  V30 179 1 70 74
M  V30 180 1 88 92
M  V30 END BOND
M  V30 END CTAB
M  END

$$$$
