
     RDKit          3D

  0  0  0  0  0  0  0  0  0  0999 V3000
M  V30 BEGIN CTAB
M  V30 COUNTS 168 180 0 0 0
M  V30 BEGIN ATOM
M  V30 1 C -1.0150 -4.5956 -1.5581 0
M  V30 2 C -1.0565 -4.8594 -2.9894 0
M  V30 3 C -2.1861 -4.3057 -0.8682 0
M  V30 4 C -2.1646 -4.0893 0.5096 0
M  V30 5 H -3.1358 -4.2557 -1.3784 0
M  V30 6 C -0.9553 -4.1561 1.1910 0
M  V30 7 C 0.2283 -4.4461 0.5120 0
M  V30 8 H -0.9071 -3.9998 2.2578 0
M  V30 9 C 0.1914 -4.6593 -0.8608 0
M  V30 10 C 1.4876 -4.5554 1.2348 0
M  V30 11 H 1.0891 -4.8918 -1.4132 0
M  V30 12 C -3.3990 -3.8259 1.2358 0
M  V30 13 H 2.3917 -4.6349 0.6113 0
M  V30 14 H -2.0133 -4.6411 -3.4887 0
M  V30 15 H -3.2797 -3.5174 2.2860 0
M  V30 16 C 1.0281 -1.1641 -4.8106 0
M  V30 17 C 1.3416 -2.5764 -4.9752 0
M  V30 18 C 2.0097 -0.2779 -4.3831 0
M  V30 19 C 1.7334 1.0837 -4.2590 0
M  V30 20 H 3.0071 -0.6198 -4.1526 0
M  V30 21 C 0.4588 1.5501 -4.5574 0
M  V30 22 C -0.5367 0.6726 -4.9876 0
M  V30 23 H 0.2158 2.5986 -4.4774 0
M  V30 24 C -0.2467 -0.6813 -5.1067 0
M  V30 25 C -1.8594 1.1707 -5.3380 0
M  V30 26 H -0.9937 -1.3839 -5.4430 0
M  V30 27 C 2.7755 2.0148 -3.8501 0
M  V30 28 H -2.6278 0.4028 -5.5179 0
M  V30 29 H 2.3159 -2.8993 -4.5767 0
M  V30 30 H 2.4411 3.0400 -3.6279 0
M  V30 31 C 2.3982 -0.1940 2.4460 0
M  V30 32 C 2.2883 -1.3811 3.2818 0
M  V30 33 C 1.6302 0.9296 2.7277 0
M  V30 34 C 1.7543 2.0868 1.9589 0
M  V30 35 H 0.9342 0.9365 3.5525 0
M  V30 36 C 2.6495 2.1058 0.8961 0
M  V30 37 C 3.4270 0.9858 0.6013 0
M  V30 38 H 2.7730 2.9880 0.2868 0
M  V30 39 C 3.2926 -0.1602 1.3761 0
M  V30 40 C 4.3929 1.0226 -0.4877 0
M  V30 41 H 3.8847 -1.0404 1.1770 0
M  V30 42 C 0.9777 3.2753 2.2822 0
M  V30 43 H 4.8523 0.0578 -0.7529 0
M  V30 44 H 1.4567 -1.3822 4.0036 0
M  V30 45 H 1.0168 4.0890 1.5414 0
M  V30 46 C -4.5569 0.4240 -0.1467 0
M  V30 47 C -5.3321 -0.8075 -0.1982 0
M  V30 48 C -4.3589 1.1711 -1.3017 0
M  V30 49 C -3.6516 2.3726 -1.2590 0
M  V30 50 H -4.7584 0.8471 -2.2505 0
M  V30 51 C -3.1338 2.8155 -0.0478 0
M  V30 52 C -3.3242 2.0762 1.1198 0
M  V30 53 H -2.5875 3.7439 0.0189 0
M  V30 54 C -4.0312 0.8811 1.0619 0
M  V30 55 C -2.8151 2.5634 2.3940 0
M  V30 56 H -4.2008 0.2901 1.9488 0
M  V30 57 C -3.4812 3.1729 -2.4634 0
M  V30 58 H -2.8703 1.8540 3.2343 0
M  V30 59 H -5.5776 -1.1760 -1.2063 0
M  V30 60 H -2.7848 4.0216 -2.3797 0
M  V30 61 C -0.1518 -5.6006 -5.0089 0
M  V30 62 C 0.9117 -4.7437 -5.7251 0
M  V30 63 N -0.0663 -5.3354 -3.6074 0
M  V30 64 N 0.5577 -3.3686 -5.5640 0
M  V30 65 C 0.9273 -5.0767 -7.2194 0
M  V30 66 H 1.8959 -4.9719 -5.2772 0
M  V30 67 C 1.2023 -6.5581 -7.4468 0
M  V30 68 H 1.6908 -4.4671 -7.7075 0
M  V30 69 H -0.0407 -4.8033 -7.6429 0
M  V30 70 C 0.1531 -7.4069 -6.7369 0
M  V30 71 H 2.1931 -6.8076 -7.0601 0
M  V30 72 H 1.1959 -6.7718 -8.5175 0
M  V30 73 C 0.1316 -7.0862 -5.2474 0
M  V30 74 H 0.3693 -8.4676 -6.8801 0
M  V30 75 H -0.8301 -7.2032 -7.1672 0
M  V30 76 H 1.0945 -7.3295 -4.7951 0
M  V30 77 H -0.6353 -7.6761 -4.7408 0
M  V30 78 H -1.1423 -5.3342 -5.4203 0
M  V30 79 C 2.7852 -4.7156 3.1678 0
M  V30 80 C 2.9836 -3.4699 4.0551 0
M  V30 81 N 1.5317 -4.5863 2.4941 0
M  V30 82 N 3.1128 -2.3312 3.2014 0
M  V30 83 C 4.2665 -3.6170 4.8778 0
M  V30 84 H 2.1113 -3.3847 4.7281 0
M  V30 85 C 4.2245 -4.8753 5.7361 0
M  V30 86 H 4.3855 -2.7307 5.5048 0
M  V30 87 H 5.1132 -3.6571 4.1905 0
M  V30 88 C 4.0255 -6.1078 4.8605 0
M  V30 89 H 3.4013 -4.8011 6.4505 0
M  V30 90 H 5.1539 -4.9637 6.3025 0
M  V30 91 C 2.7489 -5.9737 4.0396 0
M  V30 92 H 3.9692 -7.0040 5.4816 0
M  V30 93 H 4.8800 -6.2174 4.1889 0
M  V30 94 H 1.8813 -5.9102 4.6987 0
M  V30 95 H 2.6163 -6.8447 3.3943 0
M  V30 96 H 3.6313 -4.7714 2.4592 0
M  V30 97 C -5.7206 -3.7241 1.4508 0
M  V30 98 C -6.4988 -2.5891 0.7552 0
M  V30 99 N -4.5304 -3.9722 0.6999 0
M  V30 100 N -5.7207 -1.3941 0.8476 0
M  V30 101 C -7.8355 -2.3633 1.4670 0
M  V30 102 H -6.6758 -2.8866 -0.2944 0
M  V30 103 C -8.6676 -3.6395 1.4860 0
M  V30 104 H -8.3750 -1.5630 0.9561 0
M  V30 105 H -7.6305 -2.0312 2.4863 0
M  V30 106 C -7.8982 -4.7638 2.1712 0
M  V30 107 H -8.9046 -3.9344 0.4611 0
M  V30 108 H -9.6083 -3.4558 2.0089 0
M  V30 109 C -6.5672 -4.9997 1.4682 0
M  V30 110 H -8.4871 -5.6831 2.1588 0
M  V30 111 H -7.7161 -4.4952 3.2144 0
M  V30 112 H -6.7359 -5.3145 0.4369 0
M  V30 113 H -6.0039 -5.7887 1.9715 0
M  V30 114 H -5.4974 -3.4046 2.4850 0
M  V30 115 C 4.9845 2.6179 -3.3996 0
M  V30 116 C 5.6689 2.0991 -2.1188 0
M  V30 117 N 3.9865 1.6708 -3.7850 0
M  V30 118 N 4.7015 2.0988 -1.0670 0
M  V30 119 C 6.8194 3.0315 -1.7302 0
M  V30 120 H 6.0573 1.0848 -2.3230 0
M  V30 121 C 7.8342 3.1488 -2.8608 0
M  V30 122 H 7.2964 2.6440 -0.8274 0
M  V30 123 H 6.4026 4.0121 -1.4941 0
M  V30 124 C 7.1584 3.6591 -4.1290 0
M  V30 125 H 8.2772 2.1692 -3.0549 0
M  V30 126 H 8.6364 3.8276 -2.5641 0
M  V30 127 C 6.0136 2.7356 -4.5273 0
M  V30 128 H 7.8834 3.7160 -4.9434 0
M  V30 129 H 6.7701 4.6650 -3.9534 0
M  V30 130 H 6.3944 1.7377 -4.7511 0
M  V30 131 H 5.5131 3.1120 -5.4220 0
M  V30 132 H 4.5500 3.6099 -3.1798 0
M  V30 133 C -3.4023 2.8540 -5.8202 0
M  V30 134 C -3.9387 3.7429 -4.6797 0
M  V30 135 N -2.0965 2.4031 -5.4551 0
M  V30 136 N -4.1161 2.9229 -3.5232 0
M  V30 137 C -5.2937 4.3356 -5.0763 0
M  V30 138 H -3.2090 4.5539 -4.5034 0
M  V30 139 C -5.1828 5.1402 -6.3655 0
M  V30 140 H -5.6530 4.9675 -4.2612 0
M  V30 141 H -6.0036 3.5162 -5.2028 0
M  V30 142 C -4.6498 4.2632 -7.4934 0
M  V30 143 H -4.5058 5.9835 -6.2108 0
M  V30 144 H -6.1628 5.5407 -6.6328 0
M  V30 145 C -3.2990 3.6712 -7.1109 0
M  V30 146 H -4.5467 4.8503 -8.4083 0
M  V30 147 H -5.3583 3.4554 -7.6905 0
M  V30 148 H -2.5682 4.4671 -6.9565 0
M  V30 149 H -2.9261 3.0239 -7.9077 0
M  V30 150 H -4.1055 2.0133 -5.9608 0
M  V30 151 C -0.4070 4.5625 3.6506 0
M  V30 152 C -1.8945 4.1838 3.7989 0
M  V30 153 N 0.3273 3.3723 3.3575 0
M  V30 154 N -2.3674 3.7341 2.5276 0
M  V30 155 C -2.7043 5.4134 4.2194 0
M  V30 156 H -1.9739 3.3973 4.5711 0
M  V30 157 C -2.1751 5.9970 5.5237 0
M  V30 158 H -3.7518 5.1243 4.3275 0
M  V30 159 H -2.6421 6.1554 3.4215 0
M  V30 160 C -0.7034 6.3693 5.3795 0
M  V30 161 H -2.2863 5.2607 6.3231 0
M  V30 162 H -2.7602 6.8781 5.7948 0
M  V30 163 C 0.1129 5.1514 4.9648 0
M  V30 164 H -0.3216 6.7621 6.3239 0
M  V30 165 H -0.5996 7.1512 4.6236 0
M  V30 166 H 0.0557 4.3791 5.7340 0
M  V30 167 H 1.1635 5.4209 4.8380 0
M  V30 168 H -0.3215 5.3105 2.8416 0
M  V30 END ATOM
M  V30 BEGIN BOND
M  V30 1 1 139 143
M  V30 2 1 160 165
M  V30 3 1 124 129
M  V30 4 1 139 144
M  V30 5 1 160 164
M  V30 6 1 124 128
M  V30 7 1 142 146
M  V30 8 1 157 162
M  V30 9 1 121 126
M  V30 10 1 139 142
M  V30 11 1 137 139
M  V30 12 1 157 160
M  V30 13 1 160 163
M  V30 14 1 121 124
M  V30 15 1 124 127
M  V30 16 1 145 148
M  V30 17 1 155 159
M  V30 18 1 119 123
M  V30 19 1 137 140
M  V30 20 1 134 138
M  V30 21 1 142 145
M  V30 22 1 142 147
M  V30 23 1 151 168
M  V30 24 1 127 131
M  V30 25 1 163 167
M  V30 26 1 115 132
M  V30 27 1 155 157
M  V30 28 1 157 161
M  V30 29 1 119 121
M  V30 30 1 121 125
M  V30 31 1 134 137
M  V30 32 1 137 141
M  V30 33 1 145 149
M  V30 34 1 133 145
M  V30 35 1 151 163
M  V30 36 1 163 166
M  V30 37 1 115 127
M  V30 38 1 127 130
M  V30 39 1 155 158
M  V30 40 1 152 155
M  V30 41 1 119 122
M  V30 42 1 116 119
M  V30 43 1 57 60
M  V30 44 1 27 30
M  V30 45 1 42 45
M  V30 46 1 133 134
M  V30 47 1 134 136
M  V30 48 1 151 152
M  V30 49 1 151 153
M  V30 50 1 115 116
M  V30 51 1 115 117
M  V30 52 1 51 53
M  V30 53 1 21 23
M  V30 54 1 36 38
M  V30 55 1 133 135
M  V30 56 1 133 150
M  V30 57 1 152 154
M  V30 58 1 152 156
M  V30 59 1 116 118
M  V30 60 1 116 120
M  V30 61 2 57 136
M  V30 62 1 49 57
M  V30 63 2 27 117
M  V30 64 1 19 27
M  V30 65 2 42 153
M  V30 66 1 34 42
M  V30 67 2 25 135
M  V30 68 2 55 154
M  V30 69 2 40 118
M  V30 70 2 49 51
M  V30 71 1 51 52
M  V30 72 2 19 21
M  V30 73 1 21 22
M  V30 74 2 34 36
M  V30 75 1 36 37
M  V30 76 1 48 49
M  V30 77 1 18 19
M  V30 78 1 33 34
M  V30 79 1 22 25
M  V30 80 1 25 28
M  V30 81 1 52 55
M  V30 82 1 55 58
M  V30 83 1 37 40
M  V30 84 1 40 43
M  V30 85 2 22 24
M  V30 86 2 52 54
M  V30 87 2 37 39
M  V30 88 1 48 50
M  V30 89 2 46 48
M  V30 90 1 18 20
M  V30 91 2 16 18
M  V30 92 1 33 35
M  V30 93 2 31 33
M  V30 94 1 46 54
M  V30 95 1 54 56
M  V30 96 1 16 24
M  V30 97 1 24 26
M  V30 98 1 31 39
M  V30 99 1 39 41
M  V30 100 1 46 47
M  V30 101 1 16 17
M  V30 102 1 31 32
M  V30 103 1 47 59
M  V30 104 2 47 100
M  V30 105 1 17 29
M  V30 106 2 17 64
M  V30 107 1 32 44
M  V30 108 2 32 82
M  V30 109 1 98 100
M  V30 110 1 62 64
M  V30 111 1 80 82
M  V30 112 1 101 104
M  V30 113 1 65 68
M  V30 114 1 83 86
M  V30 115 1 101 105
M  V30 116 1 65 69
M  V30 117 1 83 87
M  V30 118 1 98 101
M  V30 119 1 98 102
M  V30 120 1 97 98
M  V30 121 1 62 65
M  V30 122 1 62 66
M  V30 123 1 61 62
M  V30 124 1 80 83
M  V30 125 1 80 84
M  V30 126 1 79 80
M  V30 127 1 101 103
M  V30 128 1 65 67
M  V30 129 1 83 85
M  V30 130 1 2 14
M  V30 131 1 12 15
M  V30 132 1 10 13
M  V30 133 1 3 5
M  V30 134 1 3 4
M  V30 135 2 1 3
M  V30 136 2 4 6
M  V30 137 1 4 12
M  V30 138 1 1 9
M  V30 139 1 1 2
M  V30 140 1 6 7
M  V30 141 1 6 8
M  V30 142 2 7 9
M  V30 143 1 9 11
M  V30 144 1 7 10
M  V30 145 2 12 99
M  V30 146 2 2 63
M  V30 147 2 10 81
M  V30 148 1 97 114
M  V30 149 1 61 78
M  V30 150 1 79 96
M  V30 151 1 97 99
M  V30 152 1 61 63
M  V30 153 1 79 81
M  V30 154 1 97 109
M  V30 155 1 61 73
M  V30 156 1 79 91
M  V30 157 1 103 108
M  V30 158 1 103 107
M  V30 159 1 103 106
M  V30 160 1 67 72
M  V30 161 1 67 71
M  V30 162 1 67 70
M  V30 163 1 85 90
M  V30 164 1 85 89
M  V30 165 1 85 88
M  V30 166 1 106 111
M  V30 167 1 70 75
M  V30 168 1 106 109
M  V30 169 1 109 112
M  V30 170 1 109 113
M  V30 171 1 70 73
M  V30 172 1 73 76
M  V30 173 1 73 77
M  V30 174 1 88 93
M  V30 175 1 88 91
M  V30 176 1 91 94
M  V30 177 1 91 95
M  V30 178 1 106 110
M  V30 179 1 70 74
M  V30 180 1 88 92
M  V30 END BOND
M  V30 END CTAB
M  END

$$$$
