
     RDKit          3D

  0  0  0  0  0  0  0  0  0  0999 V3000
M  V30 BEGIN CTAB
M  V30 COUNTS 168 180 0 0 0
M  V30 BEGIN ATOM
M  V30 1 C -3.7311 -2.1418 0.1974 0
M  V30 2 C -3.5838 -3.4717 -0.3766 0
M  V30 3 C -4.1198 -1.0753 -0.6045 0
M  V30 4 C -4.3018 0.1953 -0.0587 0
M  V30 5 H -4.3023 -1.2089 -1.6598 0
M  V30 6 C -4.0809 0.3916 1.2992 0
M  V30 7 C -3.6904 -0.6692 2.1166 0
M  V30 8 H -4.2195 1.3613 1.7522 0
M  V30 9 C -3.5130 -1.9296 1.5587 0
M  V30 10 C -3.4990 -0.4695 3.5462 0
M  V30 11 H -3.2176 -2.7716 2.1661 0
M  V30 12 C -4.7484 1.3015 -0.8937 0
M  V30 13 H -3.0469 -1.3130 4.0908 0
M  V30 14 H -3.6240 -3.5258 -1.4756 0
M  V30 15 H -4.7209 2.2970 -0.4240 0
M  V30 16 C 0.9769 -4.1809 -0.2552 0
M  V30 17 C -0.0988 -4.9882 0.3025 0
M  V30 18 C 2.0182 -3.7502 0.5583 0
M  V30 19 C 3.0749 -3.0095 0.0286 0
M  V30 20 H 2.0397 -3.9904 1.6102 0
M  V30 21 C 3.0744 -2.6939 -1.3248 0
M  V30 22 C 2.0362 -3.1192 -2.1537 0
M  V30 23 H 3.8807 -2.1278 -1.7656 0
M  V30 24 C 0.9902 -3.8566 -1.6119 0
M  V30 25 C 2.0593 -2.8212 -3.5788 0
M  V30 26 H 0.1759 -4.2053 -2.2285 0
M  V30 27 C 4.1843 -2.5949 0.8756 0
M  V30 28 H 1.1361 -3.0547 -4.1317 0
M  V30 29 H -0.1160 -5.0687 1.4005 0
M  V30 30 H 4.8954 -1.8879 0.4210 0
M  V30 31 C 0.3556 2.0633 3.7573 0
M  V30 32 C -0.9622 2.3387 4.3118 0
M  V30 33 C 0.9690 2.9924 2.9253 0
M  V30 34 C 2.2475 2.7586 2.4189 0
M  V30 35 H 0.4780 3.9175 2.6653 0
M  V30 36 C 2.9042 1.5782 2.7457 0
M  V30 37 C 2.3013 0.6364 3.5795 0
M  V30 38 H 3.8964 1.3712 2.3750 0
M  V30 39 C 1.0270 0.8831 4.0766 0
M  V30 40 C 3.0082 -0.5807 3.9523 0
M  V30 41 H 0.5368 0.1768 4.7291 0
M  V30 42 C 2.9033 3.7524 1.5808 0
M  V30 43 H 2.4105 -1.3382 4.4825 0
M  V30 44 H -1.4844 3.2126 3.8921 0
M  V30 45 H 3.8389 3.4296 1.0983 0
M  V30 46 C -1.0756 2.1743 -3.5514 0
M  V30 47 C -2.4448 1.8664 -3.9398 0
M  V30 48 C -0.0227 1.4190 -4.0535 0
M  V30 49 C 1.2962 1.7277 -3.7205 0
M  V30 50 H -0.2002 0.5895 -4.7208 0
M  V30 51 C 1.5517 2.7961 -2.8693 0
M  V30 52 C 0.5050 3.5632 -2.3572 0
M  V30 53 H 2.5613 3.0638 -2.5979 0
M  V30 54 C -0.8039 3.2438 -2.6980 0
M  V30 55 C 0.7785 4.7066 -1.4981 0
M  V30 56 H -1.6346 3.8222 -2.3234 0
M  V30 57 C 2.3990 0.9596 -4.2809 0
M  V30 58 H -0.0991 5.1622 -1.0138 0
M  V30 59 H -2.5854 0.9211 -4.4867 0
M  V30 60 H 3.3920 1.1644 -3.8515 0
M  V30 61 C -3.3279 -5.7882 -0.2547 0
M  V30 62 C -1.9646 -6.3815 0.1548 0
M  V30 63 N -3.4487 -4.4967 0.3447 0
M  V30 64 N -0.9364 -5.5800 -0.4303 0
M  V30 65 C -1.8387 -7.8111 -0.3786 0
M  V30 66 H -1.9083 -6.3841 1.2586 0
M  V30 67 C -2.9727 -8.6889 0.1364 0
M  V30 68 H -0.8722 -8.2168 -0.0722 0
M  V30 69 H -1.8557 -7.7740 -1.4692 0
M  V30 70 C -4.3216 -8.1020 -0.2653 0
M  V30 71 H -2.9157 -8.7550 1.2254 0
M  V30 72 H -2.8674 -9.6979 -0.2673 0
M  V30 73 C -4.4593 -6.6798 0.2640 0
M  V30 74 H -5.1314 -8.7195 0.1285 0
M  V30 75 H -4.4039 -8.0944 -1.3546 0
M  V30 76 H -4.4257 -6.6784 1.3548 0
M  V30 77 H -5.4149 -6.2492 -0.0425 0
M  V30 78 H -3.3631 -5.7366 -1.3580 0
M  V30 79 C -3.6719 0.7431 5.5325 0
M  V30 80 C -2.7444 1.9526 5.7675 0
M  V30 81 N -3.8571 0.5921 4.1237 0
M  V30 82 N -1.4568 1.6364 5.2344 0
M  V30 83 C -2.6048 2.2162 7.2693 0
M  V30 84 H -3.1929 2.8315 5.2701 0
M  V30 85 C -3.9651 2.4617 7.9103 0
M  V30 86 H -1.9522 3.0797 7.4154 0
M  V30 87 H -2.1226 1.3508 7.7271 0
M  V30 88 C -4.8845 1.2678 7.6764 0
M  V30 89 H -4.4157 3.3571 7.4759 0
M  V30 90 H -3.8398 2.6344 8.9812 0
M  V30 91 C -5.0337 0.9986 6.1841 0
M  V30 92 H -5.8663 1.4591 8.1141 0
M  V30 93 H -4.4647 0.3855 8.1651 0
M  V30 94 H -5.4957 1.8553 5.6905 0
M  V30 95 H -5.6729 0.1295 6.0147 0
M  V30 96 H -3.1978 -0.1469 5.9847 0
M  V30 97 C -5.6165 2.2294 -2.8513 0
M  V30 98 C -4.7269 2.3222 -4.1074 0
M  V30 99 N -5.1668 1.1213 -2.0690 0
M  V30 100 N -3.4001 2.6498 -3.6900 0
M  V30 101 C -5.2421 3.4317 -5.0282 0
M  V30 102 H -4.7671 1.3491 -4.6299 0
M  V30 103 C -6.6921 3.1838 -5.4252 0
M  V30 104 H -4.6057 3.4767 -5.9146 0
M  V30 105 H -5.1523 4.3841 -4.5028 0
M  V30 106 C -7.5728 3.0889 -4.1839 0
M  V30 107 H -6.7601 2.2512 -5.9904 0
M  V30 108 H -7.0390 3.9936 -6.0703 0
M  V30 109 C -7.0711 1.9847 -3.2618 0
M  V30 110 H -8.6060 2.8846 -4.4718 0
M  V30 111 H -7.5543 4.0432 -3.6525 0
M  V30 112 H -7.1284 1.0179 -3.7650 0
M  V30 113 H -7.6863 1.9304 -2.3609 0
M  V30 114 H -5.5349 3.1841 -2.3006 0
M  V30 115 C 5.4451 -2.6293 2.8392 0
M  V30 116 C 4.8996 -1.9395 4.1059 0
M  V30 117 N 4.3322 -3.0433 2.0444 0
M  V30 118 N 4.2344 -0.7393 3.7069 0
M  V30 119 C 6.0577 -1.5747 5.0386 0
M  V30 120 H 4.2140 -2.6429 4.6124 0
M  V30 121 C 6.8659 -2.8100 5.4162 0
M  V30 122 H 5.6520 -1.0958 5.9322 0
M  V30 123 H 6.6939 -0.8489 4.5291 0
M  V30 124 C 7.4037 -3.4949 4.1644 0
M  V30 125 H 6.2292 -3.5071 5.9659 0
M  V30 126 H 7.6916 -2.5218 6.0701 0
M  V30 127 C 6.2584 -3.8662 3.2304 0
M  V30 128 H 7.9594 -4.3940 4.4381 0
M  V30 129 H 8.0900 -2.8197 3.6480 0
M  V30 130 H 5.5896 -4.5776 3.7179 0
M  V30 131 H 6.6430 -4.3356 2.3224 0
M  V30 132 H 6.0890 -1.9075 2.3046 0
M  V30 133 C 3.0764 -2.0916 -5.5486 0
M  V30 134 C 3.3358 -0.5858 -5.7576 0
M  V30 135 N 3.0842 -2.3528 -4.1439 0
M  V30 136 N 2.2262 0.1352 -5.2186 0
M  V30 137 C 3.4425 -0.2796 -7.2540 0
M  V30 138 H 4.2828 -0.3262 -5.2507 0
M  V30 139 C 4.5494 -1.1013 -7.9031 0
M  V30 140 H 3.6342 0.7880 -7.3816 0
M  V30 141 H 2.4819 -0.5055 -7.7205 0
M  V30 142 C 4.2957 -2.5905 -7.6948 0
M  V30 143 H 5.5105 -0.8314 -7.4594 0
M  V30 144 H 4.5964 -0.8744 -8.9701 0
M  V30 145 C 4.1919 -2.9072 -6.2081 0
M  V30 146 H 5.1049 -3.1744 -8.1382 0
M  V30 147 H 3.3653 -2.8730 -8.1927 0
M  V30 148 H 5.1322 -2.6730 -5.7058 0
M  V30 149 H 3.9869 -3.9693 -6.0571 0
M  V30 150 H 2.1035 -2.3404 -6.0099 0
M  V30 151 C 3.1218 5.8721 0.6291 0
M  V30 152 C 2.1721 6.2963 -0.5095 0
M  V30 153 N 2.4398 4.9165 1.4436 0
M  V30 154 N 1.9448 5.1597 -1.3452 0
M  V30 155 C 2.8243 7.4007 -1.3458 0
M  V30 156 H 1.2361 6.6693 -0.0556 0
M  V30 157 C 3.1822 8.6029 -0.4807 0
M  V30 158 H 2.1348 7.6935 -2.1404 0
M  V30 159 H 3.7216 6.9927 -1.8143 0
M  V30 160 C 4.1190 8.1844 0.6473 0
M  V30 161 H 2.2705 9.0293 -0.0556 0
M  V30 162 H 3.6560 9.3696 -1.0969 0
M  V30 163 C 3.4779 7.0879 1.4889 0
M  V30 164 H 4.3513 9.0433 1.2801 0
M  V30 165 H 5.0559 7.8163 0.2229 0
M  V30 166 H 2.5639 7.4573 1.9573 0
M  V30 167 H 4.1566 6.7700 2.2833 0
M  V30 168 H 4.0365 5.4499 0.1747 0
M  V30 END ATOM
M  V30 BEGIN BOND
M  V30 1 1 139 143
M  V30 2 1 160 165
M  V30 3 1 124 129
M  V30 4 1 139 144
M  V30 5 1 160 164
M  V30 6 1 124 128
M  V30 7 1 142 146
M  V30 8 1 157 162
M  V30 9 1 121 126
M  V30 10 1 139 142
M  V30 11 1 137 139
M  V30 12 1 157 160
M  V30 13 1 160 163
M  V30 14 1 121 124
M  V30 15 1 124 127
M  V30 16 1 145 148
M  V30 17 1 155 159
M  V30 18 1 119 123
M  V30 19 1 137 140
M  V30 20 1 134 138
M  V30 21 1 142 145
M  V30 22 1 142 147
M  V30 23 1 151 168
M  V30 24 1 127 131
M  V30 25 1 163 167
M  V30 26 1 115 132
M  V30 27 1 155 157
M  V30 28 1 157 161
M  V30 29 1 119 121
M  V30 30 1 121 125
M  V30 31 1 134 137
M  V30 32 1 137 141
M  V30 33 1 145 149
M  V30 34 1 133 145
M  V30 35 1 151 163
M  V30 36 1 163 166
M  V30 37 1 115 127
M  V30 38 1 127 130
M  V30 39 1 155 158
M  V30 40 1 152 155
M  V30 41 1 119 122
M  V30 42 1 116 119
M  V30 43 1 57 60
M  V30 44 1 27 30
M  V30 45 1 42 45
M  V30 46 1 133 134
M  V30 47 1 134 136
M  V30 48 1 151 152
M  V30 49 1 151 153
M  V30 50 1 115 116
M  V30 51 1 115 117
M  V30 52 1 51 53
M  V30 53 1 21 23
M  V30 54 1 36 38
M  V30 55 1 133 135
M  V30 56 1 133 150
M  V30 57 1 152 154
M  V30 58 1 152 156
M  V30 59 1 116 118
M  V30 60 1 116 120
M  V30 61 2 57 136
M  V30 62 1 49 57
M  V30 63 2 27 117
M  V30 64 1 19 27
M  V30 65 2 42 153
M  V30 66 1 34 42
M  V30 67 2 25 135
M  V30 68 2 55 154
M  V30 69 2 40 118
M  V30 70 2 49 51
M  V30 71 1 51 52
M  V30 72 2 19 21
M  V30 73 1 21 22
M  V30 74 2 34 36
M  V30 75 1 36 37
M  V30 76 1 48 49
M  V30 77 1 18 19
M  V30 78 1 33 34
M  V30 79 1 22 25
M  V30 80 1 25 28
M  V30 81 1 52 55
M  V30 82 1 55 58
M  V30 83 1 37 40
M  V30 84 1 40 43
M  V30 85 2 22 24
M  V30 86 2 52 54
M  V30 87 2 37 39
M  V30 88 1 48 50
M  V30 89 2 46 48
M  V30 90 1 18 20
M  V30 91 2 16 18
M  V30 92 1 33 35
M  V30 93 2 31 33
M  V30 94 1 46 54
M  V30 95 1 54 56
M  V30 96 1 16 24
M  V30 97 1 24 26
M  V30 98 1 31 39
M  V30 99 1 39 41
M  V30 100 1 46 47
M  V30 101 1 16 17
M  V30 102 1 31 32
M  V30 103 1 47 59
M  V30 104 2 47 100
M  V30 105 1 17 29
M  V30 106 2 17 64
M  V30 107 1 32 44
M  V30 108 2 32 82
M  V30 109 1 98 100
M  V30 110 1 62 64
M  V30 111 1 80 82
M  V30 112 1 101 104
M  V30 113 1 65 68
M  V30 114 1 83 86
M  V30 115 1 101 105
M  V30 116 1 65 69
M  V30 117 1 83 87
M  V30 118 1 98 101
M  V30 119 1 98 102
M  V30 120 1 97 98
M  V30 121 1 62 65
M  V30 122 1 62 66
M  V30 123 1 61 62
M  V30 124 1 80 83
M  V30 125 1 80 84
M  V30 126 1 79 80
M  V30 127 1 101 103
M  V30 128 1 65 67
M  V30 129 1 83 85
M  V30 130 1 2 14
M  V30 131 1 12 15
M  V30 132 1 10 13
M  V30 133 1 3 5
M  V30 134 1 3 4
M  V30 135 2 1 3
M  V30 136 2 4 6
M  V30 137 1 4 12
M  V30 138 1 1 9
M  V30 139 1 1 2
M  V30 140 1 6 7
M  V30 141 1 6 8
M  V30 142 2 7 9
M  V30 143 1 9 11
M  V30 144 1 7 10
M  V30 145 2 12 99
M  V30 146 2 2 63
M  V30 147 2 10 81
M  V30 148 1 97 114
M  V30 149 1 61 78
M  V30 150 1 79 96
M  V30 151 1 97 99
M  V30 152 1 61 63
M  V30 153 1 79 81
M  V30 154 1 97 109
M  V30 155 1 61 73
M  V30 156 1 79 91
M  V30 157 1 103 108
M  V30 158 1 103 107
M  V30 159 1 103 106
M  V30 160 1 67 72
M  V30 161 1 67 71
M  V30 162 1 67 70
M  V30 163 1 85 90
M  V30 164 1 85 89
M  V30 165 1 85 88
M  V30 166 1 106 111
M  V30 167 1 70 75
M  V30 168 1 106 109
M  V30 169 1 109 112
M  V30 170 1 109 113
M  V30 171 1 70 73
M  V30 172 1 73 76
M  V30 173 1 73 77
M  V30 174 1 88 93
M  V30 175 1 88 91
M  V30 176 1 91 94
M  V30 177 1 91 95
M  V30 178 1 106 110
M  V30 179 1 70 74
M  V30 180 1 88 92
M  V30 END BOND
M  V30 END CTAB
M  END

$$$$
