
     RDKit          3D

  0  0  0  0  0  0  0  0  0  0999 V3000
M  V30 BEGIN CTAB
M  V30 COUNTS 168 180 0 0 0
M  V30 BEGIN ATOM
M  V30 1 C -0.4439 -0.8548 4.0860 0
M  V30 2 C -1.8383 -1.0734 4.4437 0
M  V30 3 C 0.0903 0.4279 4.1136 0
M  V30 4 C 1.4344 0.6450 3.8107 0
M  V30 5 H -0.5166 1.2788 4.3826 0
M  V30 6 C 2.2390 -0.4355 3.4691 0
M  V30 7 C 1.7169 -1.7287 3.4372 0
M  V30 8 H 3.2841 -0.3006 3.2358 0
M  V30 9 C 0.3758 -1.9296 3.7414 0
M  V30 10 C 2.5717 -2.8635 3.1185 0
M  V30 11 H -0.0559 -2.9188 3.7317 0
M  V30 12 C 2.0008 1.9846 3.8799 0
M  V30 13 H 2.0550 -3.8238 2.9658 0
M  V30 14 H -2.4520 -0.1658 4.5537 0
M  V30 15 H 3.0214 2.0938 3.4814 0
M  V30 16 C -3.7983 -2.2183 0.4231 0
M  V30 17 C -3.7877 -2.9438 1.6855 0
M  V30 18 C -3.3639 -2.8403 -0.7413 0
M  V30 19 C -3.4057 -2.1699 -1.9638 0
M  V30 20 H -2.9996 -3.8561 -0.7280 0
M  V30 21 C -3.8779 -0.8636 -2.0086 0
M  V30 22 C -4.3173 -0.2263 -0.8481 0
M  V30 23 H -3.9286 -0.3206 -2.9399 0
M  V30 24 C -4.2699 -0.9069 0.3627 0
M  V30 25 C -4.8491 1.1280 -0.9052 0
M  V30 26 H -4.6086 -0.4432 1.2766 0
M  V30 27 C -2.9880 -2.8386 -3.1879 0
M  V30 28 H -5.0286 1.6132 0.0668 0
M  V30 29 H -3.2614 -3.9109 1.6765 0
M  V30 30 H -2.9050 -2.1975 -4.0792 0
M  V30 31 C 3.4262 -2.3169 -1.3858 0
M  V30 32 C 4.3613 -2.4484 -0.2775 0
M  V30 33 C 3.5140 -1.2283 -2.2454 0
M  V30 34 C 2.6498 -1.1103 -3.3339 0
M  V30 35 H 4.2586 -0.4610 -2.0989 0
M  V30 36 C 1.6874 -2.0895 -3.5490 0
M  V30 37 C 1.5872 -3.1877 -2.6947 0
M  V30 38 H 1.0085 -2.0299 -4.3858 0
M  V30 39 C 2.4553 -3.2920 -1.6142 0
M  V30 40 C 0.6043 -4.2323 -2.9460 0
M  V30 41 H 2.4069 -4.1329 -0.9393 0
M  V30 42 C 2.7714 0.0103 -4.2557 0
M  V30 43 H 0.4855 -4.9800 -2.1466 0
M  V30 44 H 4.9908 -1.5678 -0.0761 0
M  V30 45 H 1.9606 0.1135 -4.9934 0
M  V30 46 C 0.0882 4.1328 0.2685 0
M  V30 47 C 0.0816 4.5071 1.6756 0
M  V30 48 C -1.1096 4.0134 -0.4261 0
M  V30 49 C -1.1155 3.6938 -1.7838 0
M  V30 50 H -2.0568 4.1786 0.0639 0
M  V30 51 C 0.0917 3.4839 -2.4395 0
M  V30 52 C 1.3019 3.6000 -1.7555 0
M  V30 53 H 0.1203 3.2415 -3.4908 0
M  V30 54 C 1.2922 3.9192 -0.4029 0
M  V30 55 C 2.5662 3.4191 -2.4549 0
M  V30 56 H 2.2120 4.0225 0.1522 0
M  V30 57 C -2.3704 3.6097 -2.5176 0
M  V30 58 H 3.4633 3.3739 -1.8180 0
M  V30 59 H -0.9043 4.5058 2.1660 0
M  V30 60 H -2.3015 3.2040 -3.5388 0
M  V30 61 C -3.6703 -2.4023 5.0127 0
M  V30 62 C -4.3565 -3.2556 3.9268 0
M  V30 63 N -2.3011 -2.2289 4.6426 0
M  V30 64 N -4.3710 -2.5030 2.7122 0
M  V30 65 C -5.8004 -3.5564 4.3375 0
M  V30 66 H -3.7898 -4.1986 3.8215 0
M  V30 67 C -5.8489 -4.2732 5.6813 0
M  V30 68 H -6.2667 -4.1674 3.5616 0
M  V30 69 H -6.3458 -2.6127 4.3934 0
M  V30 70 C -5.1683 -3.4319 6.7556 0
M  V30 71 H -5.3400 -5.2364 5.5983 0
M  V30 72 H -6.8878 -4.4648 5.9571 0
M  V30 73 C -3.7285 -3.1297 6.3587 0
M  V30 74 H -5.1817 -3.9609 7.7107 0
M  V30 75 H -5.7150 -2.4946 6.8828 0
M  V30 76 H -3.1582 -4.0562 6.2738 0
M  V30 77 H -3.2463 -2.5075 7.1157 0
M  V30 78 H -4.2053 -1.4377 5.0811 0
M  V30 79 C 4.6334 -3.8955 2.7573 0
M  V30 80 C 5.4069 -3.6121 1.4536 0
M  V30 81 N 3.8257 -2.7542 3.0521 0
M  V30 82 N 4.4611 -3.5150 0.3869 0
M  V30 83 C 6.3669 -4.7675 1.1575 0
M  V30 84 H 5.9754 -2.6741 1.5882 0
M  V30 85 C 7.3382 -4.9813 2.3118 0
M  V30 86 H 6.9107 -4.5454 0.2367 0
M  V30 87 H 5.7771 -5.6701 0.9885 0
M  V30 88 C 6.5748 -5.2588 3.6024 0
M  V30 89 H 7.9537 -4.0877 2.4394 0
M  V30 90 H 8.0025 -5.8168 2.0819 0
M  V30 91 C 5.6186 -4.1129 3.9090 0
M  V30 92 H 7.2737 -5.3848 4.4318 0
M  V30 93 H 6.0084 -6.1868 3.4963 0
M  V30 94 H 6.1761 -3.1874 4.0638 0
M  V30 95 H 5.0537 -4.3202 4.8204 0
M  V30 96 H 4.0240 -4.8048 2.6049 0
M  V30 97 C 1.9664 4.2448 4.4605 0
M  V30 98 C 1.0847 5.2222 3.6572 0
M  V30 99 N 1.3696 2.9482 4.3915 0
M  V30 100 N 1.1358 4.8397 2.2814 0
M  V30 101 C 1.6301 6.6463 3.7937 0
M  V30 102 H 0.0576 5.1709 4.0622 0
M  V30 103 C 1.6919 7.0706 5.2558 0
M  V30 104 H 0.9891 7.3241 3.2259 0
M  V30 105 H 2.6265 6.6770 3.3495 0
M  V30 106 C 2.5613 6.1035 6.0521 0
M  V30 107 H 0.6829 7.0804 5.6746 0
M  V30 108 H 2.0950 8.0829 5.3268 0
M  V30 109 C 2.0250 4.6829 5.9264 0
M  V30 110 H 2.5810 6.3959 7.1039 0
M  V30 111 H 3.5853 6.1406 5.6736 0
M  V30 112 H 1.0186 4.6211 6.3443 0
M  V30 113 H 2.6597 3.9849 6.4768 0
M  V30 114 H 2.9807 4.2565 4.0219 0
M  V30 115 C -2.3771 -4.7041 -4.4500 0
M  V30 116 C -0.9875 -5.3404 -4.2441 0
M  V30 117 N -2.7655 -4.0787 -3.2254 0
M  V30 118 N -0.0453 -4.2886 -4.0247 0
M  V30 119 C -0.5790 -6.1142 -5.5004 0
M  V30 120 H -1.0484 -6.0273 -3.3805 0
M  V30 121 C -1.6061 -7.1873 -5.8402 0
M  V30 122 H 0.4020 -6.5639 -5.3329 0
M  V30 123 H -0.4862 -5.4060 -6.3256 0
M  V30 124 C -2.9814 -6.5600 -6.0414 0
M  V30 125 H -1.6548 -7.9147 -5.0266 0
M  V30 126 H -1.2987 -7.7153 -6.7451 0
M  V30 127 C -3.3999 -5.7902 -4.7948 0
M  V30 128 H -3.7191 -7.3351 -6.2582 0
M  V30 129 H -2.9482 -5.8792 -6.8952 0
M  V30 130 H -3.4825 -6.4676 -3.9431 0
M  V30 131 H -4.3743 -5.3204 -4.9451 0
M  V30 132 H -2.3034 -3.9779 -5.2798 0
M  V30 133 C -5.6526 3.0163 -2.0169 0
M  V30 134 C -4.6677 3.9265 -2.7784 0
M  V30 135 N -5.1128 1.6934 -2.0005 0
M  V30 136 N -3.4590 4.0055 -2.0207 0
M  V30 137 C -5.2580 5.3330 -2.9130 0
M  V30 138 H -4.5000 3.4900 -3.7797 0
M  V30 139 C -6.6032 5.2957 -3.6276 0
M  V30 140 H -4.5513 5.9596 -3.4613 0
M  V30 141 H -5.3735 5.7545 -1.9129 0
M  V30 142 C -7.5773 4.3938 -2.8771 0
M  V30 143 H -6.4656 4.9158 -4.6425 0
M  V30 144 H -7.0080 6.3072 -3.6994 0
M  V30 145 C -7.0015 2.9897 -2.7410 0
M  V30 146 H -8.5310 4.3489 -3.4067 0
M  V30 147 H -7.7636 4.8083 -1.8837 0
M  V30 148 H -6.8538 2.5452 -3.7267 0
M  V30 149 H -7.6870 2.3480 -2.1833 0
M  V30 150 H -5.7793 3.4235 -0.9974 0
M  V30 151 C 3.8552 1.8694 -5.1588 0
M  V30 152 C 3.8881 3.1910 -4.3647 0
M  V30 153 N 3.7595 0.7922 -4.2249 0
M  V30 154 N 2.6267 3.3486 -3.7119 0
M  V30 155 C 4.0984 4.3673 -5.3220 0
M  V30 156 H 4.7231 3.1377 -3.6427 0
M  V30 157 C 5.3848 4.1990 -6.1211 0
M  V30 158 H 4.1274 5.2920 -4.7415 0
M  V30 159 H 3.2407 4.4208 -5.9946 0
M  V30 160 C 5.3550 2.8913 -6.9047 0
M  V30 161 H 6.2385 4.1939 -5.4393 0
M  V30 162 H 5.5051 5.0426 -6.8037 0
M  V30 163 C 5.1500 1.7128 -5.9608 0
M  V30 164 H 6.2893 2.7620 -7.4546 0
M  V30 165 H 4.5391 2.9220 -7.6306 0
M  V30 166 H 5.9828 1.6422 -5.2590 0
M  V30 167 H 5.1047 0.7771 -6.5223 0
M  V30 168 H 2.9884 1.9011 -5.8434 0
M  V30 END ATOM
M  V30 BEGIN BOND
M  V30 1 1 139 143
M  V30 2 1 160 165
M  V30 3 1 124 129
M  V30 4 1 139 144
M  V30 5 1 160 164
M  V30 6 1 124 128
M  V30 7 1 142 146
M  V30 8 1 157 162
M  V30 9 1 121 126
M  V30 10 1 139 142
M  V30 11 1 137 139
M  V30 12 1 157 160
M  V30 13 1 160 163
M  V30 14 1 121 124
M  V30 15 1 124 127
M  V30 16 1 145 148
M  V30 17 1 155 159
M  V30 18 1 119 123
M  V30 19 1 137 140
M  V30 20 1 134 138
M  V30 21 1 142 145
M  V30 22 1 142 147
M  V30 23 1 151 168
M  V30 24 1 127 131
M  V30 25 1 163 167
M  V30 26 1 115 132
M  V30 27 1 155 157
M  V30 28 1 157 161
M  V30 29 1 119 121
M  V30 30 1 121 125
M  V30 31 1 134 137
M  V30 32 1 137 141
M  V30 33 1 145 149
M  V30 34 1 133 145
M  V30 35 1 151 163
M  V30 36 1 163 166
M  V30 37 1 115 127
M  V30 38 1 127 130
M  V30 39 1 155 158
M  V30 40 1 152 155
M  V30 41 1 119 122
M  V30 42 1 116 119
M  V30 43 1 57 60
M  V30 44 1 27 30
M  V30 45 1 42 45
M  V30 46 1 133 134
M  V30 47 1 134 136
M  V30 48 1 151 152
M  V30 49 1 151 153
M  V30 50 1 115 116
M  V30 51 1 115 117
M  V30 52 1 51 53
M  V30 53 1 21 23
M  V30 54 1 36 38
M  V30 55 1 133 135
M  V30 56 1 133 150
M  V30 57 1 152 154
M  V30 58 1 152 156
M  V30 59 1 116 118
M  V30 60 1 116 120
M  V30 61 2 57 136
M  V30 62 1 49 57
M  V30 63 2 27 117
M  V30 64 1 19 27
M  V30 65 2 42 153
M  V30 66 1 34 42
M  V30 67 2 25 135
M  V30 68 2 55 154
M  V30 69 2 40 118
M  V30 70 2 49 51
M  V30 71 1 51 52
M  V30 72 2 19 21
M  V30 73 1 21 22
M  V30 74 2 34 36
M  V30 75 1 36 37
M  V30 76 1 48 49
M  V30 77 1 18 19
M  V30 78 1 33 34
M  V30 79 1 22 25
M  V30 80 1 25 28
M  V30 81 1 52 55
M  V30 82 1 55 58
M  V30 83 1 37 40
M  V30 84 1 40 43
M  V30 85 2 22 24
M  V30 86 2 52 54
M  V30 87 2 37 39
M  V30 88 1 48 50
M  V30 89 2 46 48
M  V30 90 1 18 20
M  V30 91 2 16 18
M  V30 92 1 33 35
M  V30 93 2 31 33
M  V30 94 1 46 54
M  V30 95 1 54 56
M  V30 96 1 16 24
M  V30 97 1 24 26
M  V30 98 1 31 39
M  V30 99 1 39 41
M  V30 100 1 46 47
M  V30 101 1 16 17
M  V30 102 1 31 32
M  V30 103 1 47 59
M  V30 104 2 47 100
M  V30 105 1 17 29
M  V30 106 2 17 64
M  V30 107 1 32 44
M  V30 108 2 32 82
M  V30 109 1 98 100
M  V30 110 1 62 64
M  V30 111 1 80 82
M  V30 112 1 101 104
M  V30 113 1 65 68
M  V30 114 1 83 86
M  V30 115 1 101 105
M  V30 116 1 65 69
M  V30 117 1 83 87
M  V30 118 1 98 101
M  V30 119 1 98 102
M  V30 120 1 97 98
M  V30 121 1 62 65
M  V30 122 1 62 66
M  V30 123 1 61 62
M  V30 124 1 80 83
M  V30 125 1 80 84
M  V30 126 1 79 80
M  V30 127 1 101 103
M  V30 128 1 65 67
M  V30 129 1 83 85
M  V30 130 1 2 14
M  V30 131 1 12 15
M  V30 132 1 10 13
M  V30 133 1 3 5
M  V30 134 1 3 4
M  V30 135 2 1 3
M  V30 136 2 4 6
M  V30 137 1 4 12
M  V30 138 1 1 9
M  V30 139 1 1 2
M  V30 140 1 6 7
M  V30 141 1 6 8
M  V30 142 2 7 9
M  V30 143 1 9 11
M  V30 144 1 7 10
M  V30 145 2 12 99
M  V30 146 2 2 63
M  V30 147 2 10 81
M  V30 148 1 97 114
M  V30 149 1 61 78
M  V30 150 1 79 96
M  V30 151 1 97 99
M  V30 152 1 61 63
M  V30 153 1 79 81
M  V30 154 1 97 109
M  V30 155 1 61 73
M  V30 156 1 79 91
M  V30 157 1 103 108
M  V30 158 1 103 107
M  V30 159 1 103 106
M  V30 160 1 67 72
M  V30 161 1 67 71
M  V30 162 1 67 70
M  V30 163 1 85 90
M  V30 164 1 85 89
M  V30 165 1 85 88
M  V30 166 1 106 111
M  V30 167 1 70 75
M  V30 168 1 106 109
M  V30 169 1 109 112
M  V30 170 1 109 113
M  V30 171 1 70 73
M  V30 172 1 73 76
M  V30 173 1 73 77
M  V30 174 1 88 93
M  V30 175 1 88 91
M  V30 176 1 91 94
M  V30 177 1 91 95
M  V30 178 1 106 110
M  V30 179 1 70 74
M  V30 180 1 88 92
M  V30 END BOND
M  V30 END CTAB
M  END

$$$$
