
     RDKit          3D

  0  0  0  0  0  0  0  0  0  0999 V3000
M  V30 BEGIN CTAB
M  V30 COUNTS 168 180 0 0 0
M  V30 BEGIN ATOM
M  V30 1 C -3.3117 -0.4865 2.9416 0
M  V30 2 C -4.6491 -0.7123 2.4121 0
M  V30 3 C -2.8295 0.8086 3.0889 0
M  V30 4 C -1.5652 1.0392 3.6310 0
M  V30 5 H -3.4254 1.6613 2.8017 0
M  V30 6 C -0.7815 -0.0420 4.0162 0
M  V30 7 C -1.2520 -1.3475 3.8744 0
M  V30 8 H 0.1982 0.1042 4.4447 0
M  V30 9 C -2.5138 -1.5618 3.3326 0
M  V30 10 C -0.4453 -2.4763 4.3162 0
M  V30 11 H -2.9083 -2.5596 3.2160 0
M  V30 12 C -1.0793 2.3985 3.8217 0
M  V30 13 H -0.8195 -3.4721 4.0320 0
M  V30 14 H -5.1512 0.1710 1.9877 0
M  V30 15 H -0.0208 2.4923 4.1102 0
M  V30 16 C -3.8476 -2.5663 -1.7398 0
M  V30 17 C -4.6428 -3.0832 -0.6351 0
M  V30 18 C -2.8353 -3.3420 -2.2921 0
M  V30 19 C -2.0921 -2.8747 -3.3761 0
M  V30 20 H -2.6122 -4.3246 -1.9055 0
M  V30 21 C -2.3654 -1.6156 -3.8971 0
M  V30 22 C -3.3784 -0.8256 -3.3533 0
M  V30 23 H -1.8123 -1.2286 -4.7392 0
M  V30 24 C -4.1106 -1.3046 -2.2735 0
M  V30 25 C -3.6887 0.4760 -3.9273 0
M  V30 26 H -4.9047 -0.7198 -1.8350 0
M  V30 27 C -1.0598 -3.7066 -3.9779 0
M  V30 28 H -4.3901 1.0987 -3.3504 0
M  V30 29 H -4.2746 -4.0137 -0.1755 0
M  V30 30 H -0.4189 -3.2102 -4.7229 0
M  V30 31 C 2.9840 -2.6036 1.2273 0
M  V30 32 C 3.0512 -2.5149 2.6790 0
M  V30 33 C 3.6353 -1.6606 0.4411 0
M  V30 34 C 3.6117 -1.7563 -0.9503 0
M  V30 35 H 4.1833 -0.8452 0.8877 0
M  V30 36 C 2.9196 -2.8018 -1.5496 0
M  V30 37 C 2.2611 -3.7558 -0.7736 0
M  V30 38 H 2.8881 -2.9067 -2.6232 0
M  V30 39 C 2.2934 -3.6476 0.6117 0
M  V30 40 C 1.5708 -4.8724 -1.4036 0
M  V30 41 H 1.7991 -4.3734 1.2392 0
M  V30 42 C 4.3293 -0.7897 -1.7695 0
M  V30 43 H 0.9508 -5.4902 -0.7356 0
M  V30 44 H 3.4811 -1.5846 3.0817 0
M  V30 45 H 4.1356 -0.8424 -2.8522 0
M  V30 46 C -0.2971 3.8594 -0.4875 0
M  V30 47 C -1.1299 4.4493 0.5511 0
M  V30 48 C -0.8374 3.5756 -1.7360 0
M  V30 49 C -0.0412 3.0468 -2.7519 0
M  V30 50 H -1.8769 3.7704 -1.9508 0
M  V30 51 C 1.3024 2.7943 -2.5027 0
M  V30 52 C 1.8589 3.0739 -1.2544 0
M  V30 53 H 1.9457 2.3915 -3.2700 0
M  V30 54 C 1.0533 3.6007 -0.2519 0
M  V30 55 C 3.2760 2.8458 -1.0094 0
M  V30 56 H 1.4558 3.8336 0.7220 0
M  V30 57 C -0.6012 2.7890 -4.0710 0
M  V30 58 H 3.6025 2.9440 0.0376 0
M  V30 59 H -2.2100 4.4781 0.3389 0
M  V30 60 H 0.0464 2.2317 -4.7655 0
M  V30 61 C -6.5261 -2.0211 1.9538 0
M  V30 62 C -6.4657 -3.0660 0.8213 0
M  V30 63 N -5.2038 -1.8429 2.4653 0
M  V30 64 N -5.7009 -2.5150 -0.2526 0
M  V30 65 C -7.8793 -3.3670 0.3159 0
M  V30 66 H -6.0059 -3.9858 1.2263 0
M  V30 67 C -8.7701 -3.8654 1.4472 0
M  V30 68 H -7.8171 -4.1137 -0.4786 0
M  V30 69 H -8.2923 -2.4533 -0.1149 0
M  V30 70 C -8.8286 -2.8344 2.5692 0
M  V30 71 H -8.3708 -4.8043 1.8379 0
M  V30 72 H -9.7738 -4.0606 1.0644 0
M  V30 73 C -7.4266 -2.5300 3.0827 0
M  V30 74 H -9.4461 -3.2069 3.3890 0
M  V30 75 H -9.2861 -1.9159 2.1943 0
M  V30 76 H -6.9752 -3.4302 3.5032 0
M  V30 77 H -7.4640 -1.7744 3.8703 0
M  V30 78 H -6.9372 -1.0843 1.5358 0
M  V30 79 C 1.3528 -3.4529 5.4383 0
M  V30 80 C 2.7710 -3.3412 4.8430 0
M  V30 81 N 0.5983 -2.3192 5.0053 0
M  V30 82 N 2.6681 -3.4579 3.4226 0
M  V30 83 C 3.6466 -4.4817 5.3692 0
M  V30 84 H 3.1960 -2.3676 5.1478 0
M  V30 85 C 3.7101 -4.4651 6.8914 0
M  V30 86 H 4.6475 -4.3813 4.9439 0
M  V30 87 H 3.2274 -5.4267 5.0193 0
M  V30 88 C 2.3082 -4.5726 7.4817 0
M  V30 89 H 4.1742 -3.5343 7.2260 0
M  V30 90 H 4.3290 -5.2938 7.2415 0
M  V30 91 C 1.4287 -3.4395 6.9675 0
M  V30 92 H 2.3562 -4.5333 8.5718 0
M  V30 93 H 1.8682 -5.5316 7.1989 0
M  V30 94 H 1.8320 -2.4758 7.2832 0
M  V30 95 H 0.4175 -3.5278 7.3704 0
M  V30 96 H 0.9076 -4.4028 5.0905 0
M  V30 97 C -1.3267 4.7175 3.9076 0
M  V30 98 C -1.4868 5.5136 2.5966 0
M  V30 99 N -1.8345 3.3993 3.6922 0
M  V30 100 N -0.6379 4.9228 1.6106 0
M  V30 101 C -1.0532 6.9658 2.8142 0
M  V30 102 H -2.5509 5.4778 2.3004 0
M  V30 103 C -1.8619 7.6169 3.9294 0
M  V30 104 H -1.1813 7.5147 1.8788 0
M  V30 105 H 0.0091 6.9738 3.0644 0
M  V30 106 C -1.7069 6.8293 5.2259 0
M  V30 107 H -2.9166 7.6443 3.6455 0
M  V30 108 H -1.5258 8.6458 4.0730 0
M  V30 109 C -2.1394 5.3827 5.0218 0
M  V30 110 H -2.3090 7.2839 6.0152 0
M  V30 111 H -0.6618 6.8552 5.5431 0
M  V30 112 H -3.1955 5.3395 4.7497 0
M  V30 113 H -2.0071 4.8108 5.9429 0
M  V30 114 H -0.2546 4.7086 4.1759 0
M  V30 115 C 0.0801 -5.7159 -4.3088 0
M  V30 116 C 1.0243 -6.2451 -3.2102 0
M  V30 117 N -0.9317 -4.9252 -3.6822 0
M  V30 118 N 1.7018 -5.1282 -2.6309 0
M  V30 119 C 2.0627 -7.1863 -3.8267 0
M  V30 120 H 0.4151 -6.7900 -2.4664 0
M  V30 121 C 1.3890 -8.3470 -4.5482 0
M  V30 122 H 2.7159 -7.5569 -3.0337 0
M  V30 123 H 2.6753 -6.6128 -4.5245 0
M  V30 124 C 0.4528 -7.8253 -5.6330 0
M  V30 125 H 0.8173 -8.9391 -3.8298 0
M  V30 126 H 2.1492 -8.9953 -4.9888 0
M  V30 127 C -0.5879 -6.8901 -5.0296 0
M  V30 128 H -0.0478 -8.6591 -6.1293 0
M  V30 129 H 1.0338 -7.2862 -6.3850 0
M  V30 130 H -1.2066 -7.4285 -4.3096 0
M  V30 131 H -1.2450 -6.4967 -5.8082 0
M  V30 132 H 0.6813 -5.1263 -5.0245 0
M  V30 133 C -3.5480 2.1259 -5.5720 0
M  V30 134 C -2.2527 2.9511 -5.7120 0
M  V30 135 N -3.2049 0.8492 -5.0298 0
M  V30 136 N -1.7441 3.2056 -4.4013 0
M  V30 137 C -2.5597 4.2893 -6.3900 0
M  V30 138 H -1.5401 2.3713 -6.3264 0
M  V30 139 C -3.2005 4.0763 -7.7559 0
M  V30 140 H -1.6307 4.8550 -6.4878 0
M  V30 141 H -3.2308 4.8566 -5.7427 0
M  V30 142 C -4.4801 3.2580 -7.6193 0
M  V30 143 H -2.5005 3.5488 -8.4078 0
M  V30 144 H -3.4208 5.0435 -8.2120 0
M  V30 145 C -4.1853 1.9218 -6.9492 0
M  V30 146 H -4.9215 3.0852 -8.6029 0
M  V30 147 H -5.2038 3.8141 -7.0190 0
M  V30 148 H -3.4986 1.3355 -7.5623 0
M  V30 149 H -5.1040 1.3437 -6.8290 0
M  V30 150 H -4.2405 2.6817 -4.9141 0
M  V30 151 C 5.8435 0.9539 -2.1061 0
M  V30 152 C 5.4666 2.3839 -1.6684 0
M  V30 153 N 5.1416 0.0334 -1.2684 0
M  V30 154 N 4.0787 2.5818 -1.9446 0
M  V30 155 C 6.2794 3.4039 -2.4704 0
M  V30 156 H 5.6920 2.4844 -0.5911 0
M  V30 157 C 7.7750 3.1737 -2.2919 0
M  V30 158 H 6.0056 4.4086 -2.1411 0
M  V30 159 H 6.0063 3.3102 -3.5228 0
M  V30 160 C 8.1488 1.7592 -2.7216 0
M  V30 161 H 8.0422 3.3163 -1.2421 0
M  V30 162 H 8.3312 3.9044 -2.8824 0
M  V30 163 C 7.3482 0.7351 -1.9265 0
M  V30 164 H 9.2163 1.5899 -2.5670 0
M  V30 165 H 7.9398 1.6367 -3.7869 0
M  V30 166 H 7.5829 0.8154 -0.8637 0
M  V30 167 H 7.5970 -0.2782 -2.2491 0
M  V30 168 H 5.5691 0.8364 -3.1701 0
M  V30 END ATOM
M  V30 BEGIN BOND
M  V30 1 1 139 143
M  V30 2 1 160 165
M  V30 3 1 124 129
M  V30 4 1 139 144
M  V30 5 1 160 164
M  V30 6 1 124 128
M  V30 7 1 142 146
M  V30 8 1 157 162
M  V30 9 1 121 126
M  V30 10 1 139 142
M  V30 11 1 137 139
M  V30 12 1 157 160
M  V30 13 1 160 163
M  V30 14 1 121 124
M  V30 15 1 124 127
M  V30 16 1 145 148
M  V30 17 1 155 159
M  V30 18 1 119 123
M  V30 19 1 137 140
M  V30 20 1 134 138
M  V30 21 1 142 145
M  V30 22 1 142 147
M  V30 23 1 151 168
M  V30 24 1 127 131
M  V30 25 1 163 167
M  V30 26 1 115 132
M  V30 27 1 155 157
M  V30 28 1 157 161
M  V30 29 1 119 121
M  V30 30 1 121 125
M  V30 31 1 134 137
M  V30 32 1 137 141
M  V30 33 1 145 149
M  V30 34 1 133 145
M  V30 35 1 151 163
M  V30 36 1 163 166
M  V30 37 1 115 127
M  V30 38 1 127 130
M  V30 39 1 155 158
M  V30 40 1 152 155
M  V30 41 1 119 122
M  V30 42 1 116 119
M  V30 43 1 57 60
M  V30 44 1 27 30
M  V30 45 1 42 45
M  V30 46 1 133 134
M  V30 47 1 134 136
M  V30 48 1 151 152
M  V30 49 1 151 153
M  V30 50 1 115 116
M  V30 51 1 115 117
M  V30 52 1 51 53
M  V30 53 1 21 23
M  V30 54 1 36 38
M  V30 55 1 133 135
M  V30 56 1 133 150
M  V30 57 1 152 154
M  V30 58 1 152 156
M  V30 59 1 116 118
M  V30 60 1 116 120
M  V30 61 2 57 136
M  V30 62 1 49 57
M  V30 63 2 27 117
M  V30 64 1 19 27
M  V30 65 2 42 153
M  V30 66 1 34 42
M  V30 67 2 25 135
M  V30 68 2 55 154
M  V30 69 2 40 118
M  V30 70 2 49 51
M  V30 71 1 51 52
M  V30 72 2 19 21
M  V30 73 1 21 22
M  V30 74 2 34 36
M  V30 75 1 36 37
M  V30 76 1 48 49
M  V30 77 1 18 19
M  V30 78 1 33 34
M  V30 79 1 22 25
M  V30 80 1 25 28
M  V30 81 1 52 55
M  V30 82 1 55 58
M  V30 83 1 37 40
M  V30 84 1 40 43
M  V30 85 2 22 24
M  V30 86 2 52 54
M  V30 87 2 37 39
M  V30 88 1 48 50
M  V30 89 2 46 48
M  V30 90 1 18 20
M  V30 91 2 16 18
M  V30 92 1 33 35
M  V30 93 2 31 33
M  V30 94 1 46 54
M  V30 95 1 54 56
M  V30 96 1 16 24
M  V30 97 1 24 26
M  V30 98 1 31 39
M  V30 99 1 39 41
M  V30 100 1 46 47
M  V30 101 1 16 17
M  V30 102 1 31 32
M  V30 103 1 47 59
M  V30 104 2 47 100
M  V30 105 1 17 29
M  V30 106 2 17 64
M  V30 107 1 32 44
M  V30 108 2 32 82
M  V30 109 1 98 100
M  V30 110 1 62 64
M  V30 111 1 80 82
M  V30 112 1 101 104
M  V30 113 1 65 68
M  V30 114 1 83 86
M  V30 115 1 101 105
M  V30 116 1 65 69
M  V30 117 1 83 87
M  V30 118 1 98 101
M  V30 119 1 98 102
M  V30 120 1 97 98
M  V30 121 1 62 65
M  V30 122 1 62 66
M  V30 123 1 61 62
M  V30 124 1 80 83
M  V30 125 1 80 84
M  V30 126 1 79 80
M  V30 127 1 101 103
M  V30 128 1 65 67
M  V30 129 1 83 85
M  V30 130 1 2 14
M  V30 131 1 12 15
M  V30 132 1 10 13
M  V30 133 1 3 5
M  V30 134 1 3 4
M  V30 135 2 1 3
M  V30 136 2 4 6
M  V30 137 1 4 12
M  V30 138 1 1 9
M  V30 139 1 1 2
M  V30 140 1 6 7
M  V30 141 1 6 8
M  V30 142 2 7 9
M  V30 143 1 9 11
M  V30 144 1 7 10
M  V30 145 2 12 99
M  V30 146 2 2 63
M  V30 147 2 10 81
M  V30 148 1 97 114
M  V30 149 1 61 78
M  V30 150 1 79 96
M  V30 151 1 97 99
M  V30 152 1 61 63
M  V30 153 1 79 81
M  V30 154 1 97 109
M  V30 155 1 61 73
M  V30 156 1 79 91
M  V30 157 1 103 108
M  V30 158 1 103 107
M  V30 159 1 103 106
M  V30 160 1 67 72
M  V30 161 1 67 71
M  V30 162 1 67 70
M  V30 163 1 85 90
M  V30 164 1 85 89
M  V30 165 1 85 88
M  V30 166 1 106 111
M  V30 167 1 70 75
M  V30 168 1 106 109
M  V30 169 1 109 112
M  V30 170 1 109 113
M  V30 171 1 70 73
M  V30 172 1 73 76
M  V30 173 1 73 77
M  V30 174 1 88 93
M  V30 175 1 88 91
M  V30 176 1 91 94
M  V30 177 1 91 95
M  V30 178 1 106 110
M  V30 179 1 70 74
M  V30 180 1 88 92
M  V30 END BOND
M  V30 END CTAB
M  END

$$$$
