
     RDKit          3D

  0  0  0  0  0  0  0  0  0  0999 V3000
M  V30 BEGIN CTAB
M  V30 COUNTS 168 180 0 0 0
M  V30 BEGIN ATOM
M  V30 1 C 3.8039 0.3037 -1.9964 0
M  V30 2 C 4.6683 -0.8034 -1.6126 0
M  V30 3 C 3.8279 1.4902 -1.2732 0
M  V30 4 C 3.0331 2.5713 -1.6541 0
M  V30 5 H 4.4696 1.6059 -0.4131 0
M  V30 6 C 2.2042 2.4502 -2.7628 0
M  V30 7 C 2.1693 1.2655 -3.4986 0
M  V30 8 H 1.5823 3.2708 -3.0864 0
M  V30 9 C 2.9668 0.1968 -3.1070 0
M  V30 10 C 1.3302 1.1553 -4.6835 0
M  V30 11 H 2.9668 -0.7306 -3.6594 0
M  V30 12 C 3.0908 3.8266 -0.9185 0
M  V30 13 H 1.2434 0.1465 -5.1161 0
M  V30 14 H 5.1809 -0.6969 -0.6440 0
M  V30 15 H 2.3276 4.5737 -1.1863 0
M  V30 16 C 1.7052 -3.9486 0.0142 0
M  V30 17 C 2.7000 -4.0754 -1.0414 0
M  V30 18 C 0.3773 -4.2720 -0.2375 0
M  V30 19 C -0.5785 -4.1925 0.7754 0
M  V30 20 H 0.0600 -4.6042 -1.2141 0
M  V30 21 C -0.1936 -3.7749 2.0438 0
M  V30 22 C 1.1356 -3.4469 2.3115 0
M  V30 23 H -0.9082 -3.7092 2.8498 0
M  V30 24 C 2.0767 -3.5311 1.2924 0
M  V30 25 C 1.5426 -3.0486 3.6516 0
M  V30 26 H 3.1137 -3.2903 1.4699 0
M  V30 27 C -1.9607 -4.5711 0.5185 0
M  V30 28 H 2.5686 -2.6598 3.7445 0
M  V30 29 H 2.3036 -4.2603 -2.0519 0
M  V30 30 H -2.6786 -4.3349 1.3192 0
M  V30 31 C -2.9476 1.0560 -2.9492 0
M  V30 32 C -2.3738 1.9537 -3.9415 0
M  V30 33 C -3.5614 1.5732 -1.8144 0
M  V30 34 C -4.1496 0.7260 -0.8754 0
M  V30 35 H -3.6089 2.6375 -1.6426 0
M  V30 36 C -4.1087 -0.6483 -1.0779 0
M  V30 37 C -3.4963 -1.1821 -2.2119 0
M  V30 38 H -4.5603 -1.3294 -0.3730 0
M  V30 39 C -2.9145 -0.3255 -3.1390 0
M  V30 40 C -3.4906 -2.6200 -2.4411 0
M  V30 41 H -2.4388 -0.7077 -4.0293 0
M  V30 42 C -4.8272 1.2734 0.2914 0
M  V30 43 H -2.8584 -2.9698 -3.2717 0
M  V30 44 H -2.3045 3.0120 -3.6455 0
M  V30 45 H -5.1277 0.5419 1.0575 0
M  V30 46 C 1.0453 2.8014 3.0914 0
M  V30 47 C 2.3675 3.3592 2.8448 0
M  V30 48 C 0.9066 1.6515 3.8595 0
M  V30 49 C -0.3568 1.1290 4.1358 0
M  V30 50 H 1.7685 1.1478 4.2694 0
M  V30 51 C -1.4830 1.7639 3.6261 0
M  V30 52 C -1.3594 2.9187 2.8532 0
M  V30 53 H -2.4743 1.3877 3.8274 0
M  V30 54 C -0.0942 3.4279 2.5863 0
M  V30 55 C -2.5434 3.6041 2.3545 0
M  V30 56 H 0.0338 4.3231 1.9972 0
M  V30 57 C -0.5004 -0.0524 4.9748 0
M  V30 58 H -2.3590 4.4121 1.6295 0
M  V30 59 H 3.2170 2.7256 3.1441 0
M  V30 60 H -1.5102 -0.4893 5.0175 0
M  V30 61 C 5.7110 -2.8625 -1.9577 0
M  V30 62 C 4.8818 -4.1593 -1.8642 0
M  V30 63 N 4.8382 -1.8047 -2.3593 0
M  V30 64 N 3.9359 -4.0075 -0.8039 0
M  V30 65 C 5.7998 -5.3410 -1.5404 0
M  V30 66 H 4.3867 -4.3220 -2.8389 0
M  V30 67 C 6.8933 -5.4882 -2.5912 0
M  V30 68 H 5.1970 -6.2501 -1.4864 0
M  V30 69 H 6.2419 -5.1736 -0.5567 0
M  V30 70 C 7.7125 -4.2056 -2.6869 0
M  V30 71 H 6.4389 -5.7017 -3.5616 0
M  V30 72 H 7.5406 -6.3282 -2.3314 0
M  V30 73 C 6.8088 -3.0229 -3.0129 0
M  V30 74 H 8.4775 -4.3060 -3.4595 0
M  V30 75 H 8.2176 -4.0260 -1.7350 0
M  V30 76 H 6.3333 -3.1680 -3.9844 0
M  V30 77 H 7.3900 -2.0994 -3.0588 0
M  V30 78 H 6.1636 -2.6715 -0.9678 0
M  V30 79 C -0.0339 2.0153 -6.3704 0
M  V30 80 C -1.4705 2.4625 -6.0318 0
M  V30 81 N 0.7653 2.1595 -5.1946 0
M  V30 82 N -2.0087 1.5457 -5.0769 0
M  V30 83 C -2.3371 2.4253 -7.2935 0
M  V30 84 H -1.4253 3.4929 -5.6351 0
M  V30 85 C -1.7517 3.3121 -8.3855 0
M  V30 86 H -3.3468 2.7524 -7.0361 0
M  V30 87 H -2.3978 1.3918 -7.6388 0
M  V30 88 C -0.3300 2.8730 -8.7195 0
M  V30 89 H -1.7401 4.3498 -8.0442 0
M  V30 90 H -2.3799 3.2586 -9.2771 0
M  V30 91 C 0.5427 2.9098 -7.4711 0
M  V30 92 H 0.0950 3.5276 -9.4831 0
M  V30 93 H -0.3489 1.8570 -9.1203 0
M  V30 94 H 0.6083 3.9291 -7.0865 0
M  V30 95 H 1.5555 2.5734 -7.7029 0
M  V30 96 H -0.0728 0.9668 -6.7175 0
M  V30 97 C 4.0158 5.3024 0.6349 0
M  V30 98 C 3.8386 5.0283 2.1420 0
M  V30 99 N 3.9786 4.0499 -0.0521 0
M  V30 100 N 2.5242 4.5070 2.3482 0
M  V30 101 C 3.9797 6.3348 2.9279 0
M  V30 102 H 4.6205 4.3130 2.4556 0
M  V30 103 C 5.3309 6.9880 2.6653 0
M  V30 104 H 3.8597 6.1197 3.9918 0
M  V30 105 H 3.1720 7.0050 2.6286 0
M  V30 106 C 5.5089 7.2572 1.1749 0
M  V30 107 H 6.1282 6.3264 3.0121 0
M  V30 108 H 5.4016 7.9221 3.2262 0
M  V30 109 C 5.3742 5.9624 0.3831 0
M  V30 110 H 6.4890 7.7005 0.9882 0
M  V30 111 H 4.7493 7.9681 0.8416 0
M  V30 112 H 6.1571 5.2595 0.6734 0
M  V30 113 H 5.4779 6.1563 -0.6868 0
M  V30 114 H 3.2024 5.9762 0.3098 0
M  V30 115 C -3.6658 -5.5335 -0.7515 0
M  V30 116 C -4.1744 -4.8105 -2.0151 0
M  V30 117 N -2.3029 -5.1586 -0.5431 0
M  V30 118 N -4.1902 -3.4068 -1.7478 0
M  V30 119 C -5.5998 -5.2672 -2.3370 0
M  V30 120 H -3.4985 -5.0640 -2.8519 0
M  V30 121 C -5.6594 -6.7772 -2.5324 0
M  V30 122 H -5.9391 -4.7517 -3.2380 0
M  V30 123 H -6.2510 -4.9672 -1.5142 0
M  V30 124 C -5.1543 -7.4937 -1.2847 0
M  V30 125 H -5.0403 -7.0579 -3.3876 0
M  V30 126 H -6.6866 -7.0784 -2.7479 0
M  V30 127 C -3.7340 -7.0493 -0.9574 0
M  V30 128 H -5.1735 -8.5743 -1.4390 0
M  V30 129 H -5.8109 -7.2624 -0.4428 0
M  V30 130 H -3.0580 -7.3166 -1.7714 0
M  V30 131 H -3.3786 -7.5434 -0.0506 0
M  V30 132 H -4.3100 -5.2383 0.0965 0
M  V30 133 C 1.2162 -2.7877 5.9477 0
M  V30 134 C 0.2835 -1.6720 6.4610 0
M  V30 135 N 0.7749 -3.1707 4.6438 0
M  V30 136 N 0.4669 -0.5230 5.6317 0
M  V30 137 C 0.6550 -1.3053 7.9005 0
M  V30 138 H -0.7552 -2.0474 6.4231 0
M  V30 139 C 0.5745 -2.5225 8.8133 0
M  V30 140 H -0.0205 -0.5210 8.2489 0
M  V30 141 H 1.6682 -0.8994 7.9012 0
M  V30 142 C 1.4942 -3.6278 8.3055 0
M  V30 143 H -0.4540 -2.8900 8.8398 0
M  V30 144 H 0.8557 -2.2378 9.8293 0
M  V30 145 C 1.1305 -4.0036 6.8744 0
M  V30 146 H 1.4134 -4.5075 8.9472 0
M  V30 147 H 2.5298 -3.2816 8.3386 0
M  V30 148 H 0.1126 -4.3956 6.8342 0
M  V30 149 H 1.8029 -4.7787 6.5002 0
M  V30 150 H 2.2488 -2.3943 5.9355 0
M  V30 151 C -5.7626 3.0028 1.5487 0
M  V30 152 C -4.8387 4.0149 2.2559 0
M  V30 153 N -5.0773 2.5041 0.3983 0
M  V30 154 N -3.7016 3.3065 2.7530 0
M  V30 155 C -5.5755 4.6549 3.4357 0
M  V30 156 H -4.5538 4.7911 1.5227 0
M  V30 157 C -6.8555 5.3407 2.9741 0
M  V30 158 H -4.9095 5.3735 3.9179 0
M  V30 159 H -5.8069 3.8733 4.1613 0
M  V30 160 C -7.7689 4.3418 2.2721 0
M  V30 161 H -6.6058 6.1507 2.2846 0
M  V30 162 H -7.3676 5.7775 3.8339 0
M  V30 163 C -7.0467 3.7014 1.0932 0
M  V30 164 H -8.6725 4.8431 1.9197 0
M  V30 165 H -8.0693 3.5656 2.9798 0
M  V30 166 H -6.7817 4.4607 0.3553 0
M  V30 167 H -7.6909 2.9682 0.6031 0
M  V30 168 H -6.0047 2.1982 2.2665 0
M  V30 END ATOM
M  V30 BEGIN BOND
M  V30 1 1 139 143
M  V30 2 1 160 165
M  V30 3 1 124 129
M  V30 4 1 139 144
M  V30 5 1 160 164
M  V30 6 1 124 128
M  V30 7 1 142 146
M  V30 8 1 157 162
M  V30 9 1 121 126
M  V30 10 1 139 142
M  V30 11 1 137 139
M  V30 12 1 157 160
M  V30 13 1 160 163
M  V30 14 1 121 124
M  V30 15 1 124 127
M  V30 16 1 145 148
M  V30 17 1 155 159
M  V30 18 1 119 123
M  V30 19 1 137 140
M  V30 20 1 134 138
M  V30 21 1 142 145
M  V30 22 1 142 147
M  V30 23 1 151 168
M  V30 24 1 127 131
M  V30 25 1 163 167
M  V30 26 1 115 132
M  V30 27 1 155 157
M  V30 28 1 157 161
M  V30 29 1 119 121
M  V30 30 1 121 125
M  V30 31 1 134 137
M  V30 32 1 137 141
M  V30 33 1 145 149
M  V30 34 1 133 145
M  V30 35 1 151 163
M  V30 36 1 163 166
M  V30 37 1 115 127
M  V30 38 1 127 130
M  V30 39 1 155 158
M  V30 40 1 152 155
M  V30 41 1 119 122
M  V30 42 1 116 119
M  V30 43 1 57 60
M  V30 44 1 27 30
M  V30 45 1 42 45
M  V30 46 1 133 134
M  V30 47 1 134 136
M  V30 48 1 151 152
M  V30 49 1 151 153
M  V30 50 1 115 116
M  V30 51 1 115 117
M  V30 52 1 51 53
M  V30 53 1 21 23
M  V30 54 1 36 38
M  V30 55 1 133 135
M  V30 56 1 133 150
M  V30 57 1 152 154
M  V30 58 1 152 156
M  V30 59 1 116 118
M  V30 60 1 116 120
M  V30 61 2 57 136
M  V30 62 1 49 57
M  V30 63 2 27 117
M  V30 64 1 19 27
M  V30 65 2 42 153
M  V30 66 1 34 42
M  V30 67 2 25 135
M  V30 68 2 55 154
M  V30 69 2 40 118
M  V30 70 2 49 51
M  V30 71 1 51 52
M  V30 72 2 19 21
M  V30 73 1 21 22
M  V30 74 2 34 36
M  V30 75 1 36 37
M  V30 76 1 48 49
M  V30 77 1 18 19
M  V30 78 1 33 34
M  V30 79 1 22 25
M  V30 80 1 25 28
M  V30 81 1 52 55
M  V30 82 1 55 58
M  V30 83 1 37 40
M  V30 84 1 40 43
M  V30 85 2 22 24
M  V30 86 2 52 54
M  V30 87 2 37 39
M  V30 88 1 48 50
M  V30 89 2 46 48
M  V30 90 1 18 20
M  V30 91 2 16 18
M  V30 92 1 33 35
M  V30 93 2 31 33
M  V30 94 1 46 54
M  V30 95 1 54 56
M  V30 96 1 16 24
M  V30 97 1 24 26
M  V30 98 1 31 39
M  V30 99 1 39 41
M  V30 100 1 46 47
M  V30 101 1 16 17
M  V30 102 1 31 32
M  V30 103 1 47 59
M  V30 104 2 47 100
M  V30 105 1 17 29
M  V30 106 2 17 64
M  V30 107 1 32 44
M  V30 108 2 32 82
M  V30 109 1 98 100
M  V30 110 1 62 64
M  V30 111 1 80 82
M  V30 112 1 101 104
M  V30 113 1 65 68
M  V30 114 1 83 86
M  V30 115 1 101 105
M  V30 116 1 65 69
M  V30 117 1 83 87
M  V30 118 1 98 101
M  V30 119 1 98 102
M  V30 120 1 97 98
M  V30 121 1 62 65
M  V30 122 1 62 66
M  V30 123 1 61 62
M  V30 124 1 80 83
M  V30 125 1 80 84
M  V30 126 1 79 80
M  V30 127 1 101 103
M  V30 128 1 65 67
M  V30 129 1 83 85
M  V30 130 1 2 14
M  V30 131 1 12 15
M  V30 132 1 10 13
M  V30 133 1 3 5
M  V30 134 1 3 4
M  V30 135 2 1 3
M  V30 136 2 4 6
M  V30 137 1 4 12
M  V30 138 1 1 9
M  V30 139 1 1 2
M  V30 140 1 6 7
M  V30 141 1 6 8
M  V30 142 2 7 9
M  V30 143 1 9 11
M  V30 144 1 7 10
M  V30 145 2 12 99
M  V30 146 2 2 63
M  V30 147 2 10 81
M  V30 148 1 97 114
M  V30 149 1 61 78
M  V30 150 1 79 96
M  V30 151 1 97 99
M  V30 152 1 61 63
M  V30 153 1 79 81
M  V30 154 1 97 109
M  V30 155 1 61 73
M  V30 156 1 79 91
M  V30 157 1 103 108
M  V30 158 1 103 107
M  V30 159 1 103 106
M  V30 160 1 67 72
M  V30 161 1 67 71
M  V30 162 1 67 70
M  V30 163 1 85 90
M  V30 164 1 85 89
M  V30 165 1 85 88
M  V30 166 1 106 111
M  V30 167 1 70 75
M  V30 168 1 106 109
M  V30 169 1 109 112
M  V30 170 1 109 113
M  V30 171 1 70 73
M  V30 172 1 73 76
M  V30 173 1 73 77
M  V30 174 1 88 93
M  V30 175 1 88 91
M  V30 176 1 91 94
M  V30 177 1 91 95
M  V30 178 1 106 110
M  V30 179 1 70 74
M  V30 180 1 88 92
M  V30 END BOND
M  V30 END CTAB
M  END

$$$$
