
     RDKit          3D

  0  0  0  0  0  0  0  0  0  0999 V3000
M  V30 BEGIN CTAB
M  V30 COUNTS 168 180 0 0 0
M  V30 BEGIN ATOM
M  V30 1 C -1.1381 -0.7781 4.2335 0
M  V30 2 C -2.4231 -1.4627 4.2400 0
M  V30 3 C -1.0877 0.6105 4.2544 0
M  V30 4 C 0.1371 1.2772 4.2875 0
M  V30 5 H -1.9910 1.2011 4.2599 0
M  V30 6 C 1.3146 0.5391 4.2894 0
M  V30 7 C 1.2798 -0.8553 4.2686 0
M  V30 8 H 2.2775 1.0256 4.3211 0
M  V30 9 C 0.0521 -1.5056 4.2357 0
M  V30 10 C 2.5142 -1.6264 4.3116 0
M  V30 11 H -0.0079 -2.5832 4.2255 0
M  V30 12 C 0.1859 2.7311 4.3504 0
M  V30 13 H 2.4084 -2.7088 4.1389 0
M  V30 14 H -3.3064 -0.8239 4.0848 0
M  V30 15 H 1.1818 3.1825 4.2202 0
M  V30 16 C -2.6785 -3.2809 0.0037 0
M  V30 17 C -2.7853 -3.9375 1.2988 0
M  V30 18 C -1.7538 -3.7309 -0.9312 0
M  V30 19 C -1.6681 -3.1361 -2.1900 0
M  V30 20 H -1.0942 -4.5560 -0.7102 0
M  V30 21 C -2.5119 -2.0768 -2.5017 0
M  V30 22 C -3.4450 -1.6142 -1.5737 0
M  V30 23 H -2.4743 -1.6000 -3.4692 0
M  V30 24 C -3.5190 -2.2167 -0.3235 0
M  V30 25 C -4.3548 -0.5308 -1.9180 0
M  V30 26 H -4.2346 -1.8857 0.4135 0
M  V30 27 C -0.7263 -3.6367 -3.1812 0
M  V30 28 H -4.9505 -0.1233 -1.0865 0
M  V30 29 H -1.9896 -4.6610 1.5350 0
M  V30 30 H -0.6118 -3.0207 -4.0866 0
M  V30 31 C 4.3730 -0.8869 0.1503 0
M  V30 32 C 4.9465 -0.6675 1.4705 0
M  V30 33 C 4.3352 0.1505 -0.7737 0
M  V30 34 C 3.8244 -0.0566 -2.0550 0
M  V30 35 H 4.7116 1.1313 -0.5264 0
M  V30 36 C 3.3408 -1.3128 -2.4007 0
M  V30 37 C 3.3722 -2.3637 -1.4840 0
M  V30 38 H 2.9453 -1.5063 -3.3861 0
M  V30 39 C 3.8842 -2.1425 -0.2110 0
M  V30 40 C 2.9019 -3.6889 -1.8625 0
M  V30 41 H 3.9278 -2.9370 0.5183 0
M  V30 42 C 3.8239 1.0217 -3.0335 0
M  V30 43 H 2.8163 -4.4186 -1.0425 0
M  V30 44 H 5.1665 0.3802 1.7280 0
M  V30 45 H 3.2673 0.8247 -3.9628 0
M  V30 46 C -1.2283 4.0226 0.1496 0
M  V30 47 C -1.7542 4.3931 1.4558 0
M  V30 48 C -2.0724 3.4829 -0.8135 0
M  V30 49 C -1.5897 3.1601 -2.0818 0
M  V30 50 H -3.1184 3.3157 -0.6073 0
M  V30 51 C -0.2481 3.3733 -2.3747 0
M  V30 52 C 0.6113 3.9140 -1.4181 0
M  V30 53 H 0.1540 3.1396 -3.3486 0
M  V30 54 C 0.1162 4.2310 -0.1587 0
M  V30 55 C 2.0072 4.1736 -1.7414 0
M  V30 56 H 0.7544 4.6566 0.6004 0
M  V30 57 C -2.4858 2.6331 -3.1013 0
M  V30 58 H 2.6509 4.4535 -0.8930 0
M  V30 59 H -2.7802 4.0564 1.6711 0
M  V30 60 H -2.0022 2.2608 -4.0177 0
M  V30 61 C -3.7958 -3.3372 4.4604 0
M  V30 62 C -3.8265 -4.3928 3.3367 0
M  V30 63 N -2.5150 -2.7038 4.4405 0
M  V30 64 N -3.7456 -3.7113 2.0833 0
M  V30 65 C -5.1440 -5.1709 3.3905 0
M  V30 66 H -2.9752 -5.0811 3.4882 0
M  V30 67 C -5.3299 -5.8387 4.7475 0
M  V30 68 H -5.1439 -5.9180 2.5939 0
M  V30 69 H -5.9624 -4.4753 3.1971 0
M  V30 70 C -5.2969 -4.7964 5.8601 0
M  V30 71 H -4.5302 -6.5657 4.9077 0
M  V30 72 H -6.2804 -6.3756 4.7645 0
M  V30 73 C -3.9875 -4.0182 5.8183 0
M  V30 74 H -5.4036 -5.2820 6.8322 0
M  V30 75 H -6.1344 -4.1062 5.7354 0
M  V30 76 H -3.1441 -4.6895 5.9884 0
M  V30 77 H -3.9716 -3.2553 6.5996 0
M  V30 78 H -4.6152 -2.6181 4.2794 0
M  V30 79 C 4.8139 -1.8818 4.6147 0
M  V30 80 C 5.7847 -1.3673 3.5325 0
M  V30 81 N 3.6267 -1.0885 4.5603 0
M  V30 82 N 5.2011 -1.6221 2.2533 0
M  V30 83 C 7.1143 -2.1207 3.6266 0
M  V30 84 H 5.9496 -0.2880 3.7037 0
M  V30 85 C 7.7346 -1.9650 5.0095 0
M  V30 86 H 7.7904 -1.7377 2.8592 0
M  V30 87 H 6.9282 -3.1747 3.4130 0
M  V30 88 C 6.7747 -2.4707 6.0811 0
M  V30 89 H 7.9585 -0.9112 5.1912 0
M  V30 90 H 8.6736 -2.5206 5.0547 0
M  V30 91 C 5.4488 -1.7246 5.9991 0
M  V30 92 H 7.2122 -2.3326 7.0719 0
M  V30 93 H 6.6004 -3.5394 5.9366 0
M  V30 94 H 5.6021 -0.6608 6.1881 0
M  V30 95 H 4.7514 -2.1014 6.7504 0
M  V30 96 H 4.6077 -2.9486 4.4126 0
M  V30 97 C -0.7542 4.8467 4.6451 0
M  V30 98 C -1.6447 5.4434 3.5365 0
M  V30 99 N -0.8448 3.4226 4.5697 0
M  V30 100 N -1.0848 5.0813 2.2727 0
M  V30 101 C -1.6615 6.9702 3.6489 0
M  V30 102 H -2.6673 5.0443 3.6648 0
M  V30 103 C -2.1578 7.4124 5.0200 0
M  V30 104 H -2.3027 7.3736 2.8623 0
M  V30 105 H -0.6487 7.3389 3.4774 0
M  V30 106 C -1.2799 6.8208 6.1176 0
M  V30 107 H -3.1882 7.0769 5.1594 0
M  V30 108 H -2.1486 8.5026 5.0790 0
M  V30 109 C -1.2590 5.3007 6.0175 0
M  V30 110 H -1.6549 7.1183 7.0989 0
M  V30 111 H -0.2628 7.2062 6.0155 0
M  V30 112 H -2.2631 4.8990 6.1646 0
M  V30 113 H -0.6120 4.8759 6.7881 0
M  V30 114 H 0.2794 5.2039 4.4856 0
M  V30 115 C 0.7952 -5.1923 -4.0246 0
M  V30 116 C 2.1990 -5.3019 -3.3958 0
M  V30 117 N -0.1061 -4.7222 -3.0205 0
M  V30 118 N 2.6391 -3.9846 -3.0592 0
M  V30 119 C 3.1764 -5.9047 -4.4085 0
M  V30 120 H 2.1274 -5.9534 -2.5061 0
M  V30 121 C 2.7007 -7.2733 -4.8801 0
M  V30 122 H 4.1614 -5.9821 -3.9432 0
M  V30 123 H 3.2588 -5.2214 -5.2555 0
M  V30 124 C 1.3113 -7.1671 -5.4996 0
M  V30 125 H 2.6675 -7.9593 -4.0306 0
M  V30 126 H 3.4068 -7.6753 -5.6094 0
M  V30 127 C 0.3291 -6.5718 -4.4984 0
M  V30 128 H 0.9634 -8.1538 -5.8117 0
M  V30 129 H 1.3573 -6.5307 -6.3865 0
M  V30 130 H 0.2381 -7.2222 -3.6268 0
M  V30 131 H -0.6614 -6.4729 -4.9477 0
M  V30 132 H 0.8558 -4.4989 -4.8829 0
M  V30 133 C -5.3884 0.9422 -3.4044 0
M  V30 134 C -4.5867 2.1263 -3.9820 0
M  V30 135 N -4.4703 -0.1097 -3.1005 0
M  V30 136 N -3.7373 2.6329 -2.9509 0
M  V30 137 C -5.5446 3.2371 -4.4217 0
M  V30 138 H -4.0094 1.7599 -4.8502 0
M  V30 139 C -6.5429 2.7227 -5.4514 0
M  V30 140 H -4.9601 4.0619 -4.8350 0
M  V30 141 H -6.0694 3.6076 -3.5395 0
M  V30 142 C -7.3345 1.5500 -4.8826 0
M  V30 143 H -6.0076 2.3988 -6.3469 0
M  V30 144 H -7.2211 3.5289 -5.7386 0
M  V30 145 C -6.3909 0.4364 -4.4454 0
M  V30 146 H -8.0298 1.1677 -5.6326 0
M  V30 147 H -7.9191 1.8893 -4.0243 0
M  V30 148 H -5.8334 0.0558 -5.3030 0
M  V30 149 H -6.9541 -0.3949 -4.0160 0
M  V30 150 H -5.9242 1.2957 -2.5048 0
M  V30 151 C 4.4417 3.1275 -3.8276 0
M  V30 152 C 3.8116 4.3901 -3.2055 0
M  V30 153 N 4.4476 2.0991 -2.8357 0
M  V30 154 N 2.4392 4.1090 -2.9237 0
M  V30 155 C 3.8828 5.5509 -4.2014 0
M  V30 156 H 4.3781 4.6421 -2.2907 0
M  V30 157 C 5.3225 5.8285 -4.6160 0
M  V30 158 H 3.4404 6.4368 -3.7407 0
M  V30 159 H 3.2819 5.2920 -5.0748 0
M  V30 160 C 5.9478 4.5801 -5.2289 0
M  V30 161 H 5.9012 6.1315 -3.7403 0
M  V30 162 H 5.3449 6.6504 -5.3343 0
M  V30 163 C 5.8860 3.4188 -4.2442 0
M  V30 164 H 6.9873 4.7755 -5.4999 0
M  V30 165 H 5.4072 4.3135 -6.1400 0
M  V30 166 H 6.4618 3.6535 -3.3473 0
M  V30 167 H 6.3120 2.5172 -4.6897 0
M  V30 168 H 3.8431 2.8447 -4.7126 0
M  V30 END ATOM
M  V30 BEGIN BOND
M  V30 1 1 139 143
M  V30 2 1 160 165
M  V30 3 1 124 129
M  V30 4 1 139 144
M  V30 5 1 160 164
M  V30 6 1 124 128
M  V30 7 1 142 146
M  V30 8 1 157 162
M  V30 9 1 121 126
M  V30 10 1 139 142
M  V30 11 1 137 139
M  V30 12 1 157 160
M  V30 13 1 160 163
M  V30 14 1 121 124
M  V30 15 1 124 127
M  V30 16 1 145 148
M  V30 17 1 155 159
M  V30 18 1 119 123
M  V30 19 1 137 140
M  V30 20 1 134 138
M  V30 21 1 142 145
M  V30 22 1 142 147
M  V30 23 1 151 168
M  V30 24 1 127 131
M  V30 25 1 163 167
M  V30 26 1 115 132
M  V30 27 1 155 157
M  V30 28 1 157 161
M  V30 29 1 119 121
M  V30 30 1 121 125
M  V30 31 1 134 137
M  V30 32 1 137 141
M  V30 33 1 145 149
M  V30 34 1 133 145
M  V30 35 1 151 163
M  V30 36 1 163 166
M  V30 37 1 115 127
M  V30 38 1 127 130
M  V30 39 1 155 158
M  V30 40 1 152 155
M  V30 41 1 119 122
M  V30 42 1 116 119
M  V30 43 1 57 60
M  V30 44 1 27 30
M  V30 45 1 42 45
M  V30 46 1 133 134
M  V30 47 1 134 136
M  V30 48 1 151 152
M  V30 49 1 151 153
M  V30 50 1 115 116
M  V30 51 1 115 117
M  V30 52 1 51 53
M  V30 53 1 21 23
M  V30 54 1 36 38
M  V30 55 1 133 135
M  V30 56 1 133 150
M  V30 57 1 152 154
M  V30 58 1 152 156
M  V30 59 1 116 118
M  V30 60 1 116 120
M  V30 61 2 57 136
M  V30 62 1 49 57
M  V30 63 2 27 117
M  V30 64 1 19 27
M  V30 65 2 42 153
M  V30 66 1 34 42
M  V30 67 2 25 135
M  V30 68 2 55 154
M  V30 69 2 40 118
M  V30 70 2 49 51
M  V30 71 1 51 52
M  V30 72 2 19 21
M  V30 73 1 21 22
M  V30 74 2 34 36
M  V30 75 1 36 37
M  V30 76 1 48 49
M  V30 77 1 18 19
M  V30 78 1 33 34
M  V30 79 1 22 25
M  V30 80 1 25 28
M  V30 81 1 52 55
M  V30 82 1 55 58
M  V30 83 1 37 40
M  V30 84 1 40 43
M  V30 85 2 22 24
M  V30 86 2 52 54
M  V30 87 2 37 39
M  V30 88 1 48 50
M  V30 89 2 46 48
M  V30 90 1 18 20
M  V30 91 2 16 18
M  V30 92 1 33 35
M  V30 93 2 31 33
M  V30 94 1 46 54
M  V30 95 1 54 56
M  V30 96 1 16 24
M  V30 97 1 24 26
M  V30 98 1 31 39
M  V30 99 1 39 41
M  V30 100 1 46 47
M  V30 101 1 16 17
M  V30 102 1 31 32
M  V30 103 1 47 59
M  V30 104 2 47 100
M  V30 105 1 17 29
M  V30 106 2 17 64
M  V30 107 1 32 44
M  V30 108 2 32 82
M  V30 109 1 98 100
M  V30 110 1 62 64
M  V30 111 1 80 82
M  V30 112 1 101 104
M  V30 113 1 65 68
M  V30 114 1 83 86
M  V30 115 1 101 105
M  V30 116 1 65 69
M  V30 117 1 83 87
M  V30 118 1 98 101
M  V30 119 1 98 102
M  V30 120 1 97 98
M  V30 121 1 62 65
M  V30 122 1 62 66
M  V30 123 1 61 62
M  V30 124 1 80 83
M  V30 125 1 80 84
M  V30 126 1 79 80
M  V30 127 1 101 103
M  V30 128 1 65 67
M  V30 129 1 83 85
M  V30 130 1 2 14
M  V30 131 1 12 15
M  V30 132 1 10 13
M  V30 133 1 3 5
M  V30 134 1 3 4
M  V30 135 2 1 3
M  V30 136 2 4 6
M  V30 137 1 4 12
M  V30 138 1 1 9
M  V30 139 1 1 2
M  V30 140 1 6 7
M  V30 141 1 6 8
M  V30 142 2 7 9
M  V30 143 1 9 11
M  V30 144 1 7 10
M  V30 145 2 12 99
M  V30 146 2 2 63
M  V30 147 2 10 81
M  V30 148 1 97 114
M  V30 149 1 61 78
M  V30 150 1 79 96
M  V30 151 1 97 99
M  V30 152 1 61 63
M  V30 153 1 79 81
M  V30 154 1 97 109
M  V30 155 1 61 73
M  V30 156 1 79 91
M  V30 157 1 103 108
M  V30 158 1 103 107
M  V30 159 1 103 106
M  V30 160 1 67 72
M  V30 161 1 67 71
M  V30 162 1 67 70
M  V30 163 1 85 90
M  V30 164 1 85 89
M  V30 165 1 85 88
M  V30 166 1 106 111
M  V30 167 1 70 75
M  V30 168 1 106 109
M  V30 169 1 109 112
M  V30 170 1 109 113
M  V30 171 1 70 73
M  V30 172 1 73 76
M  V30 173 1 73 77
M  V30 174 1 88 93
M  V30 175 1 88 91
M  V30 176 1 91 94
M  V30 177 1 91 95
M  V30 178 1 106 110
M  V30 179 1 70 74
M  V30 180 1 88 92
M  V30 END BOND
M  V30 END CTAB
M  END

$$$$
