
     RDKit          3D

  0  0  0  0  0  0  0  0  0  0999 V3000
M  V30 BEGIN CTAB
M  V30 COUNTS 168 180 0 0 0
M  V30 BEGIN ATOM
M  V30 1 C -2.9812 -1.0123 2.7059 0
M  V30 2 C -4.3627 -1.2001 2.2859 0
M  V30 3 C -2.5159 0.2579 3.0247 0
M  V30 4 C -1.2058 0.4453 3.4654 0
M  V30 5 H -3.1590 1.1216 2.9525 0
M  V30 6 C -0.3602 -0.6522 3.5746 0
M  V30 7 C -0.8131 -1.9330 3.2581 0
M  V30 8 H 0.6566 -0.5404 3.9187 0
M  V30 9 C -2.1210 -2.1043 2.8204 0
M  V30 10 C 0.0626 -3.0860 3.4123 0
M  V30 11 H -2.5027 -3.0834 2.5741 0
M  V30 12 C -0.7336 1.7715 3.8374 0
M  V30 13 H -0.3172 -4.0338 3.0001 0
M  V30 14 H -4.9281 -0.2791 2.0750 0
M  V30 15 H 0.3475 1.8587 4.0272 0
M  V30 16 C -3.9745 -2.2878 -2.1844 0
M  V30 17 C -4.6328 -3.0172 -1.1099 0
M  V30 18 C -3.0105 -2.9159 -2.9640 0
M  V30 19 C -2.4005 -2.2410 -4.0214 0
M  V30 20 H -2.7241 -3.9398 -2.7785 0
M  V30 21 C -2.7577 -0.9241 -4.2855 0
M  V30 22 C -3.7236 -0.2806 -3.5117 0
M  V30 23 H -2.3085 -0.3773 -5.1003 0
M  V30 24 C -4.3229 -0.9658 -2.4616 0
M  V30 25 C -4.1244 1.0857 -3.8166 0
M  V30 26 H -5.0779 -0.4973 -1.8489 0
M  V30 27 C -1.4208 -2.9153 -4.8613 0
M  V30 28 H -4.7731 1.5718 -3.0714 0
M  V30 29 H -4.1955 -3.9960 -0.8588 0
M  V30 30 H -0.8762 -2.2734 -5.5712 0
M  V30 31 C 3.1381 -2.5451 0.0113 0
M  V30 32 C 3.3605 -2.7014 1.4417 0
M  V30 33 C 3.6782 -1.4563 -0.6626 0
M  V30 34 C 3.5058 -1.3153 -2.0395 0
M  V30 35 H 4.2525 -0.7065 -0.1404 0
M  V30 36 C 2.7770 -2.2717 -2.7363 0
M  V30 37 C 2.2289 -3.3699 -2.0735 0
M  V30 38 H 2.6315 -2.1941 -3.8028 0
M  V30 39 C 2.4090 -3.4972 -0.7013 0
M  V30 40 C 1.5002 -4.3910 -2.8128 0
M  V30 41 H 2.0027 -4.3388 -0.1614 0
M  V30 42 C 4.1076 -0.1948 -2.7485 0
M  V30 43 H 0.9708 -5.1384 -2.2017 0
M  V30 44 H 3.8101 -1.8359 1.9529 0
M  V30 45 H 3.7988 -0.0710 -3.7981 0
M  V30 46 C -0.4581 3.9737 -0.2109 0
M  V30 47 C -1.1865 4.3437 0.9943 0
M  V30 48 C -1.1242 3.8837 -1.4273 0
M  V30 49 C -0.4311 3.5685 -2.5960 0
M  V30 50 H -2.1851 4.0690 -1.4969 0
M  V30 51 C 0.9371 3.3332 -2.5341 0
M  V30 52 C 1.6193 3.4197 -1.3204 0
M  V30 53 H 1.5024 3.0934 -3.4217 0
M  V30 54 C 0.9155 3.7348 -0.1642 0
M  V30 55 C 3.0595 3.2122 -1.2659 0
M  V30 56 H 1.4159 3.8155 0.7886 0
M  V30 57 C -1.1250 3.5153 -3.8750 0
M  V30 58 H 3.4955 3.1447 -0.2570 0
M  V30 59 H -2.2837 4.3633 0.9027 0
M  V30 60 H -0.5440 3.1112 -4.7184 0
M  V30 61 C -6.2477 -2.4887 1.8039 0
M  V30 62 C -6.2866 -3.3229 0.5074 0
M  V30 63 N -4.8821 -2.3454 2.1994 0
M  V30 64 N -5.6559 -2.5664 -0.5279 0
M  V30 65 C -7.7394 -3.5920 0.1060 0
M  V30 66 H -5.7644 -4.2782 0.6974 0
M  V30 67 C -8.4903 -4.3116 1.2196 0
M  V30 68 H -7.7466 -4.1898 -0.8080 0
M  V30 69 H -8.2177 -2.6363 -0.1152 0
M  V30 70 C -8.4503 -3.4893 2.5031 0
M  V30 71 H -8.0294 -5.2859 1.3984 0
M  V30 72 H -9.5249 -4.4804 0.9143 0
M  V30 73 C -7.0083 -3.2187 2.9142 0
M  V30 74 H -8.9663 -4.0208 3.3053 0
M  V30 75 H -8.9669 -2.5403 2.3421 0
M  V30 76 H -6.4932 -4.1578 3.1237 0
M  V30 77 H -6.9773 -2.6100 3.8204 0
M  V30 78 H -6.7233 -1.5124 1.5991 0
M  V30 79 C 1.9940 -4.1636 4.1570 0
M  V30 80 C 3.3363 -3.8938 3.4471 0
M  V30 81 N 1.1711 -3.0051 4.0069 0
M  V30 82 N 3.0824 -3.7720 2.0462 0
M  V30 83 C 4.2899 -5.0699 3.6747 0
M  V30 84 H 3.7693 -2.9694 3.8704 0
M  V30 85 C 4.5181 -5.3092 5.1621 0
M  V30 86 H 5.2361 -4.8574 3.1724 0
M  V30 87 H 3.8571 -5.9583 3.2116 0
M  V30 88 C 3.1914 -5.5733 5.8661 0
M  V30 89 H 4.9941 -4.4303 5.6031 0
M  V30 90 H 5.1903 -6.1589 5.2977 0
M  V30 91 C 2.2354 -4.4068 5.6493 0
M  V30 92 H 3.3566 -5.7176 6.9357 0
M  V30 93 H 2.7455 -6.4878 5.4684 0
M  V30 94 H 2.6482 -3.4948 6.0838 0
M  V30 95 H 1.2762 -4.6040 6.1329 0
M  V30 96 H 1.5358 -5.0583 3.6977 0
M  V30 97 C -1.0237 4.0300 4.3487 0
M  V30 98 C -1.3436 5.0297 3.2190 0
M  V30 99 N -1.5213 2.7476 3.9617 0
M  V30 100 N -0.5934 4.6504 2.0634 0
M  V30 101 C -0.9226 6.4406 3.6388 0
M  V30 102 H -2.4325 5.0006 3.0323 0
M  V30 103 C -1.6201 6.8589 4.9273 0
M  V30 104 H -1.1641 7.1345 2.8309 0
M  V30 105 H 0.1601 6.4500 3.7758 0
M  V30 106 C -1.3070 5.8698 6.0448 0
M  V30 107 H -2.6997 6.8904 4.7626 0
M  V30 108 H -1.2942 7.8615 5.2115 0
M  V30 109 C -1.7257 4.4622 5.6390 0
M  V30 110 H -1.8301 6.1585 6.9587 0
M  V30 111 H -0.2345 5.8848 6.2523 0
M  V30 112 H -2.8038 4.4221 5.4738 0
M  V30 113 H -1.4809 3.7482 6.4285 0
M  V30 114 H 0.0711 4.0200 4.4994 0
M  V30 115 C -0.2774 -4.7903 -5.6509 0
M  V30 116 C 0.7924 -5.4586 -4.7638 0
M  V30 117 N -1.2332 -4.1600 -4.7959 0
M  V30 118 N 1.5030 -4.4292 -4.0727 0
M  V30 119 C 1.7791 -6.2377 -5.6376 0
M  V30 120 H 0.2804 -6.1466 -4.0668 0
M  V30 121 C 1.0580 -7.2861 -6.4759 0
M  V30 122 H 2.5230 -6.7101 -4.9924 0
M  V30 123 H 2.2989 -5.5292 -6.2849 0
M  V30 124 C -0.0022 -6.6270 -7.3516 0
M  V30 125 H 0.5816 -8.0147 -5.8159 0
M  V30 126 H 1.7806 -7.8181 -7.0980 0
M  V30 127 C -0.9926 -5.8517 -6.4914 0
M  V30 128 H -0.5344 -7.3845 -7.9305 0
M  V30 129 H 0.4810 -5.9446 -8.0547 0
M  V30 130 H -1.5168 -6.5297 -5.8157 0
M  V30 131 H -1.7392 -5.3594 -7.1181 0
M  V30 132 H 0.2287 -4.0634 -6.3117 0
M  V30 133 C -4.2013 2.9951 -5.1564 0
M  V30 134 C -2.9482 3.8850 -5.2841 0
M  V30 135 N -3.7719 1.6602 -4.8817 0
M  V30 136 N -2.3063 3.9342 -4.0085 0
M  V30 137 C -3.3579 5.3050 -5.6847 0
M  V30 138 H -2.2935 3.4479 -6.0597 0
M  V30 139 C -4.1382 5.3005 -6.9934 0
M  V30 140 H -2.4583 5.9171 -5.7783 0
M  V30 141 H -3.9676 5.7259 -4.8833 0
M  V30 142 C -5.3762 4.4187 -6.8695 0
M  V30 143 H -3.5012 4.9208 -7.7955 0
M  V30 144 H -4.4290 6.3212 -7.2501 0
M  V30 145 C -4.9796 3.0014 -6.4749 0
M  V30 146 H -5.9178 4.3972 -7.8173 0
M  V30 147 H -6.0431 4.8343 -6.1106 0
M  V30 148 H -4.3502 2.5567 -7.2478 0
M  V30 149 H -5.8662 2.3739 -6.3627 0
M  V30 150 H -4.8309 3.4020 -4.3443 0
M  V30 151 C 5.5356 1.6419 -2.9323 0
M  V30 152 C 5.1757 2.9599 -2.2171 0
M  V30 153 N 4.9504 0.5643 -2.1989 0
M  V30 154 N 3.7617 3.1442 -2.3104 0
M  V30 155 C 5.8728 4.1341 -2.9098 0
M  V30 156 H 5.5143 2.8854 -1.1678 0
M  V30 157 C 7.3838 3.9390 -2.9289 0
M  V30 158 H 5.6132 5.0560 -2.3851 0
M  V30 159 H 5.4892 4.2091 -3.9287 0
M  V30 160 C 7.7412 2.6347 -3.6333 0
M  V30 161 H 7.7601 3.9124 -1.9036 0
M  V30 162 H 7.8556 4.7818 -3.4381 0
M  V30 163 C 7.0556 1.4583 -2.9494 0
M  V30 164 H 8.8228 2.4859 -3.6212 0
M  V30 165 H 7.4206 2.6862 -4.6764 0
M  V30 166 H 7.4025 1.3666 -1.9187 0
M  V30 167 H 7.2912 0.5256 -3.4665 0
M  V30 168 H 5.1500 1.6953 -3.9666 0
M  V30 END ATOM
M  V30 BEGIN BOND
M  V30 1 1 139 143
M  V30 2 1 160 165
M  V30 3 1 124 129
M  V30 4 1 139 144
M  V30 5 1 160 164
M  V30 6 1 124 128
M  V30 7 1 142 146
M  V30 8 1 157 162
M  V30 9 1 121 126
M  V30 10 1 139 142
M  V30 11 1 137 139
M  V30 12 1 157 160
M  V30 13 1 160 163
M  V30 14 1 121 124
M  V30 15 1 124 127
M  V30 16 1 145 148
M  V30 17 1 155 159
M  V30 18 1 119 123
M  V30 19 1 137 140
M  V30 20 1 134 138
M  V30 21 1 142 145
M  V30 22 1 142 147
M  V30 23 1 151 168
M  V30 24 1 127 131
M  V30 25 1 163 167
M  V30 26 1 115 132
M  V30 27 1 155 157
M  V30 28 1 157 161
M  V30 29 1 119 121
M  V30 30 1 121 125
M  V30 31 1 134 137
M  V30 32 1 137 141
M  V30 33 1 145 149
M  V30 34 1 133 145
M  V30 35 1 151 163
M  V30 36 1 163 166
M  V30 37 1 115 127
M  V30 38 1 127 130
M  V30 39 1 155 158
M  V30 40 1 152 155
M  V30 41 1 119 122
M  V30 42 1 116 119
M  V30 43 1 57 60
M  V30 44 1 27 30
M  V30 45 1 42 45
M  V30 46 1 133 134
M  V30 47 1 134 136
M  V30 48 1 151 152
M  V30 49 1 151 153
M  V30 50 1 115 116
M  V30 51 1 115 117
M  V30 52 1 51 53
M  V30 53 1 21 23
M  V30 54 1 36 38
M  V30 55 1 133 135
M  V30 56 1 133 150
M  V30 57 1 152 154
M  V30 58 1 152 156
M  V30 59 1 116 118
M  V30 60 1 116 120
M  V30 61 2 57 136
M  V30 62 1 49 57
M  V30 63 2 27 117
M  V30 64 1 19 27
M  V30 65 2 42 153
M  V30 66 1 34 42
M  V30 67 2 25 135
M  V30 68 2 55 154
M  V30 69 2 40 118
M  V30 70 2 49 51
M  V30 71 1 51 52
M  V30 72 2 19 21
M  V30 73 1 21 22
M  V30 74 2 34 36
M  V30 75 1 36 37
M  V30 76 1 48 49
M  V30 77 1 18 19
M  V30 78 1 33 34
M  V30 79 1 22 25
M  V30 80 1 25 28
M  V30 81 1 52 55
M  V30 82 1 55 58
M  V30 83 1 37 40
M  V30 84 1 40 43
M  V30 85 2 22 24
M  V30 86 2 52 54
M  V30 87 2 37 39
M  V30 88 1 48 50
M  V30 89 2 46 48
M  V30 90 1 18 20
M  V30 91 2 16 18
M  V30 92 1 33 35
M  V30 93 2 31 33
M  V30 94 1 46 54
M  V30 95 1 54 56
M  V30 96 1 16 24
M  V30 97 1 24 26
M  V30 98 1 31 39
M  V30 99 1 39 41
M  V30 100 1 46 47
M  V30 101 1 16 17
M  V30 102 1 31 32
M  V30 103 1 47 59
M  V30 104 2 47 100
M  V30 105 1 17 29
M  V30 106 2 17 64
M  V30 107 1 32 44
M  V30 108 2 32 82
M  V30 109 1 98 100
M  V30 110 1 62 64
M  V30 111 1 80 82
M  V30 112 1 101 104
M  V30 113 1 65 68
M  V30 114 1 83 86
M  V30 115 1 101 105
M  V30 116 1 65 69
M  V30 117 1 83 87
M  V30 118 1 98 101
M  V30 119 1 98 102
M  V30 120 1 97 98
M  V30 121 1 62 65
M  V30 122 1 62 66
M  V30 123 1 61 62
M  V30 124 1 80 83
M  V30 125 1 80 84
M  V30 126 1 79 80
M  V30 127 1 101 103
M  V30 128 1 65 67
M  V30 129 1 83 85
M  V30 130 1 2 14
M  V30 131 1 12 15
M  V30 132 1 10 13
M  V30 133 1 3 5
M  V30 134 1 3 4
M  V30 135 2 1 3
M  V30 136 2 4 6
M  V30 137 1 4 12
M  V30 138 1 1 9
M  V30 139 1 1 2
M  V30 140 1 6 7
M  V30 141 1 6 8
M  V30 142 2 7 9
M  V30 143 1 9 11
M  V30 144 1 7 10
M  V30 145 2 12 99
M  V30 146 2 2 63
M  V30 147 2 10 81
M  V30 148 1 97 114
M  V30 149 1 61 78
M  V30 150 1 79 96
M  V30 151 1 97 99
M  V30 152 1 61 63
M  V30 153 1 79 81
M  V30 154 1 97 109
M  V30 155 1 61 73
M  V30 156 1 79 91
M  V30 157 1 103 108
M  V30 158 1 103 107
M  V30 159 1 103 106
M  V30 160 1 67 72
M  V30 161 1 67 71
M  V30 162 1 67 70
M  V30 163 1 85 90
M  V30 164 1 85 89
M  V30 165 1 85 88
M  V30 166 1 106 111
M  V30 167 1 70 75
M  V30 168 1 106 109
M  V30 169 1 109 112
M  V30 170 1 109 113
M  V30 171 1 70 73
M  V30 172 1 73 76
M  V30 173 1 73 77
M  V30 174 1 88 93
M  V30 175 1 88 91
M  V30 176 1 91 94
M  V30 177 1 91 95
M  V30 178 1 106 110
M  V30 179 1 70 74
M  V30 180 1 88 92
M  V30 END BOND
M  V30 END CTAB
M  END

$$$$
