
     RDKit          3D

  0  0  0  0  0  0  0  0  0  0999 V3000
M  V30 BEGIN CTAB
M  V30 COUNTS 168 180 0 0 0
M  V30 BEGIN ATOM
M  V30 1 C 1.0418 -4.3618 -0.2547 0
M  V30 2 C 2.4367 -4.4176 0.1592 0
M  V30 3 C 0.7155 -4.3409 -1.6054 0
M  V30 4 C -0.6179 -4.3266 -2.0146 0
M  V30 5 H 1.4827 -4.3496 -2.3644 0
M  V30 6 C -1.6245 -4.3232 -1.0566 0
M  V30 7 C -1.3124 -4.3440 0.3029 0
M  V30 8 H -2.6655 -4.3188 -1.3417 0
M  V30 9 C 0.0206 -4.3581 0.6956 0
M  V30 10 C -2.3693 -4.3814 1.3037 0
M  V30 11 H 0.2941 -4.3808 1.7395 0
M  V30 12 C -0.9568 -4.3458 -3.4306 0
M  V30 13 H -2.0454 -4.2430 2.3470 0
M  V30 14 H 3.1792 -4.2639 -0.6392 0
M  V30 15 H -2.0185 -4.1799 -3.6708 0
M  V30 16 C 3.1678 -0.2431 1.9914 0
M  V30 17 C 3.3667 -1.5590 2.5820 0
M  V30 18 C 2.3778 0.6990 2.6394 0
M  V30 19 C 2.2110 1.9764 2.1042 0
M  V30 20 H 1.8897 0.4691 3.5740 0
M  V30 21 C 2.8355 2.2996 0.9056 0
M  V30 22 C 3.6314 1.3645 0.2438 0
M  V30 23 H 2.7310 3.2812 0.4694 0
M  V30 24 C 3.7886 0.0958 0.7890 0
M  V30 25 C 4.3168 1.7196 -0.9909 0
M  V30 26 H 4.4030 -0.6472 0.3041 0
M  V30 27 C 1.4159 2.9736 2.8065 0
M  V30 28 H 4.7958 0.8869 -1.5290 0
M  V30 29 H 2.7245 -1.7980 3.4439 0
M  V30 30 H 1.2066 3.8991 2.2479 0
M  V30 31 C -4.2203 -0.1591 1.0509 0
M  V30 32 C -4.8629 -1.4589 0.9186 0
M  V30 33 C -4.3637 0.7938 0.0493 0
M  V30 34 C -3.7860 2.0565 0.1812 0
M  V30 35 H -4.9346 0.5838 -0.8421 0
M  V30 36 C -3.0527 2.3542 1.3235 0
M  V30 37 C -2.9000 1.4081 2.3371 0
M  V30 38 H -2.5990 3.3242 1.4578 0
M  V30 39 C -3.4815 0.1540 2.1918 0
M  V30 40 C -2.1651 1.7368 3.5503 0
M  V30 41 H -3.3866 -0.5969 2.9613 0
M  V30 42 C -3.9727 3.0658 -0.8517 0
M  V30 43 H -1.9590 0.8942 4.2283 0
M  V30 44 H -5.2942 -1.6806 -0.0700 0
M  V30 45 H -3.3620 3.9761 -0.7474 0
M  V30 46 C 0.2897 -0.1423 -4.8768 0
M  V30 47 C 0.6944 -1.4488 -5.3762 0
M  V30 48 C 1.2511 0.7851 -4.4934 0
M  V30 49 C 0.8782 2.0541 -4.0502 0
M  V30 50 H 2.3033 0.5504 -4.5435 0
M  V30 51 C -0.4702 2.3836 -3.9841 0
M  V30 52 C -1.4466 1.4630 -4.3653 0
M  V30 53 H -0.7902 3.3591 -3.6514 0
M  V30 54 C -1.0601 0.2025 -4.8050 0
M  V30 55 C -2.8565 1.8254 -4.3331 0
M  V30 56 H -1.7913 -0.5291 -5.1128 0
M  V30 57 C 1.8896 3.0371 -3.6883 0
M  V30 58 H -3.5667 1.0004 -4.4990 0
M  V30 59 H 1.7605 -1.6971 -5.2564 0
M  V30 60 H 1.5157 3.9529 -3.2049 0
M  V30 61 C 4.1481 -4.7239 1.7159 0
M  V30 62 C 4.4199 -3.6325 2.7710 0
M  V30 63 N 2.7680 -4.6563 1.3518 0
M  V30 64 N 4.2403 -2.3582 2.1498 0
M  V30 65 C 5.8638 -3.7390 3.2688 0
M  V30 66 H 3.7186 -3.7845 3.6116 0
M  V30 67 C 6.1406 -5.1188 3.8531 0
M  V30 68 H 6.0348 -2.9648 4.0199 0
M  V30 69 H 6.5325 -3.5440 2.4287 0
M  V30 70 C 5.8696 -6.1994 2.8119 0
M  V30 71 H 5.4975 -5.2819 4.7211 0
M  V30 72 H 7.1781 -5.1732 4.1889 0
M  V30 73 C 4.4333 -6.1051 2.3120 0
M  V30 74 H 6.0434 -7.1874 3.2428 0
M  V30 75 H 6.5562 -6.0737 1.9715 0
M  V30 76 H 3.7359 -6.2755 3.1339 0
M  V30 77 H 4.2439 -6.8632 1.5491 0
M  V30 78 H 4.8128 -4.5406 0.8524 0
M  V30 79 C -4.5799 -4.6395 2.0058 0
M  V30 80 C -5.6028 -3.5209 1.7217 0
M  V30 81 N -3.5731 -4.5889 0.9930 0
M  V30 82 N -4.9443 -2.2633 1.8857 0
M  V30 83 C -6.7579 -3.6067 2.7230 0
M  V30 84 H -5.9838 -3.6566 0.6933 0
M  V30 85 C -7.4355 -4.9700 2.6609 0
M  V30 86 H -7.4749 -2.8132 2.5012 0
M  V30 87 H -6.3599 -3.4283 3.7234 0
M  V30 88 C -6.4247 -6.0774 2.9388 0
M  V30 89 H -7.8696 -5.1156 1.6690 0
M  V30 90 H -8.2460 -5.0100 3.3916 0
M  V30 91 C -5.2720 -6.0039 1.9452 0
M  V30 92 H -6.9086 -7.0536 2.8669 0
M  V30 93 H -6.0372 -5.9683 3.9544 0
M  V30 94 H -5.6392 -6.1582 0.9291 0
M  V30 95 H -4.5350 -6.7815 2.1568 0
M  V30 96 H -4.1599 -4.4735 3.0144 0
M  V30 97 C -0.4651 -4.5998 -5.6979 0
M  V30 98 C 0.3197 -3.4948 -6.4334 0
M  V30 99 N -0.0908 -4.5682 -4.3191 0
M  V30 100 N -0.1212 -2.2297 -5.9364 0
M  V30 101 C 0.0292 -3.5629 -7.9351 0
M  V30 102 H 1.3972 -3.6580 -6.2497 0
M  V30 103 C 0.3888 -4.9314 -8.5003 0
M  V30 104 H 0.5991 -2.7796 -8.4393 0
M  V30 105 H -1.0315 -3.3576 -8.0899 0
M  V30 106 C -0.3845 -6.0256 -7.7721 0
M  V30 107 H 1.4609 -5.1039 -8.3808 0
M  V30 108 H 0.1611 -4.9582 -9.5679 0
M  V30 109 C -0.0996 -5.9695 -6.2764 0
M  V30 110 H -0.1039 -7.0060 -8.1620 0
M  V30 111 H -1.4546 -5.8890 -7.9440 0
M  V30 112 H 0.9598 -6.1511 -6.0870 0
M  V30 113 H -0.6705 -6.7373 -5.7497 0
M  V30 114 H -1.5442 -4.4064 -5.8375 0
M  V30 115 C 0.2587 3.8056 4.6546 0
M  V30 116 C -1.1124 3.2060 5.0270 0
M  V30 117 N 1.0198 2.7954 3.9899 0
M  V30 118 N -1.8151 2.9182 3.8164 0
M  V30 119 C -1.9213 4.2225 5.8371 0
M  V30 120 H -0.9376 2.2961 5.6295 0
M  V30 121 C -1.1697 4.6430 7.0941 0
M  V30 122 H -2.8839 3.7778 6.0984 0
M  V30 123 H -2.1143 5.0908 5.2046 0
M  V30 124 C 0.1876 5.2336 6.7276 0
M  V30 125 H -1.0246 3.7733 7.7390 0
M  V30 126 H -1.7610 5.3762 7.6465 0
M  V30 127 C 1.0032 4.2281 5.9242 0
M  V30 128 H 0.7335 5.5087 7.6322 0
M  V30 129 H 0.0409 6.1395 6.1348 0
M  V30 130 H 1.1972 3.3360 6.5221 0
M  V30 131 H 1.9664 4.6574 5.6404 0
M  V30 132 H 0.0855 4.6850 4.0081 0
M  V30 133 C 5.0780 3.2244 -2.6043 0
M  V30 134 C 4.0733 3.8546 -3.5902 0
M  V30 135 N 4.3793 2.9110 -1.3979 0
M  V30 136 N 3.1113 2.8583 -3.9417 0
M  V30 137 C 4.8029 4.3047 -4.8589 0
M  V30 138 H 3.6051 4.7246 -3.0951 0
M  V30 139 C 5.9122 5.2959 -4.5296 0
M  V30 140 H 4.0778 4.7551 -5.5402 0
M  V30 141 H 5.2185 3.4219 -5.3479 0
M  V30 142 C 6.9050 4.6751 -3.5527 0
M  V30 143 H 5.4775 6.1935 -4.0838 0
M  V30 144 H 6.4242 5.5910 -5.4478 0
M  V30 145 C 6.1899 4.2271 -2.2840 0
M  V30 146 H 7.6832 5.3977 -3.2989 0
M  V30 147 H 7.3860 3.8141 -4.0224 0
M  V30 148 H 5.7437 5.0857 -1.7790 0
M  V30 149 H 6.8950 3.7609 -1.5923 0
M  V30 150 H 5.5071 2.3237 -3.0793 0
M  V30 151 C -4.9745 3.9351 -2.7718 0
M  V30 152 C -4.6260 3.3360 -4.1494 0
M  V30 153 N -4.8036 2.9139 -1.7872 0
M  V30 154 N -3.2336 3.0149 -4.1549 0
M  V30 155 C -4.8988 4.3667 -5.2484 0
M  V30 156 H -5.2568 2.4420 -4.3052 0
M  V30 157 C -6.3526 4.8220 -5.2227 0
M  V30 158 H -4.6546 3.9222 -6.2155 0
M  V30 159 H -4.2340 5.2183 -5.0936 0
M  V30 160 C -6.6996 5.4121 -3.8601 0
M  V30 161 H -7.0045 3.9689 -5.4251 0
M  V30 162 H -6.5180 5.5643 -6.0062 0
M  V30 163 C -6.4356 4.3928 -2.7588 0
M  V30 164 H -7.7490 5.7123 -3.8376 0
M  V30 165 H -6.0913 6.3025 -3.6851 0
M  V30 166 H -7.0716 3.5164 -2.8953 0
M  V30 167 H -6.6610 4.8212 -1.7798 0
M  V30 168 H -4.3070 4.7975 -2.5930 0
M  V30 END ATOM
M  V30 BEGIN BOND
M  V30 1 1 139 143
M  V30 2 1 160 165
M  V30 3 1 124 129
M  V30 4 1 139 144
M  V30 5 1 160 164
M  V30 6 1 124 128
M  V30 7 1 142 146
M  V30 8 1 157 162
M  V30 9 1 121 126
M  V30 10 1 139 142
M  V30 11 1 137 139
M  V30 12 1 157 160
M  V30 13 1 160 163
M  V30 14 1 121 124
M  V30 15 1 124 127
M  V30 16 1 145 148
M  V30 17 1 155 159
M  V30 18 1 119 123
M  V30 19 1 137 140
M  V30 20 1 134 138
M  V30 21 1 142 145
M  V30 22 1 142 147
M  V30 23 1 151 168
M  V30 24 1 127 131
M  V30 25 1 163 167
M  V30 26 1 115 132
M  V30 27 1 155 157
M  V30 28 1 157 161
M  V30 29 1 119 121
M  V30 30 1 121 125
M  V30 31 1 134 137
M  V30 32 1 137 141
M  V30 33 1 145 149
M  V30 34 1 133 145
M  V30 35 1 151 163
M  V30 36 1 163 166
M  V30 37 1 115 127
M  V30 38 1 127 130
M  V30 39 1 155 158
M  V30 40 1 152 155
M  V30 41 1 119 122
M  V30 42 1 116 119
M  V30 43 1 57 60
M  V30 44 1 27 30
M  V30 45 1 42 45
M  V30 46 1 133 134
M  V30 47 1 134 136
M  V30 48 1 151 152
M  V30 49 1 151 153
M  V30 50 1 115 116
M  V30 51 1 115 117
M  V30 52 1 51 53
M  V30 53 1 21 23
M  V30 54 1 36 38
M  V30 55 1 133 135
M  V30 56 1 133 150
M  V30 57 1 152 154
M  V30 58 1 152 156
M  V30 59 1 116 118
M  V30 60 1 116 120
M  V30 61 2 57 136
M  V30 62 1 49 57
M  V30 63 2 27 117
M  V30 64 1 19 27
M  V30 65 2 42 153
M  V30 66 1 34 42
M  V30 67 2 25 135
M  V30 68 2 55 154
M  V30 69 2 40 118
M  V30 70 2 49 51
M  V30 71 1 51 52
M  V30 72 2 19 21
M  V30 73 1 21 22
M  V30 74 2 34 36
M  V30 75 1 36 37
M  V30 76 1 48 49
M  V30 77 1 18 19
M  V30 78 1 33 34
M  V30 79 1 22 25
M  V30 80 1 25 28
M  V30 81 1 52 55
M  V30 82 1 55 58
M  V30 83 1 37 40
M  V30 84 1 40 43
M  V30 85 2 22 24
M  V30 86 2 52 54
M  V30 87 2 37 39
M  V30 88 1 48 50
M  V30 89 2 46 48
M  V30 90 1 18 20
M  V30 91 2 16 18
M  V30 92 1 33 35
M  V30 93 2 31 33
M  V30 94 1 46 54
M  V30 95 1 54 56
M  V30 96 1 16 24
M  V30 97 1 24 26
M  V30 98 1 31 39
M  V30 99 1 39 41
M  V30 100 1 46 47
M  V30 101 1 16 17
M  V30 102 1 31 32
M  V30 103 1 47 59
M  V30 104 2 47 100
M  V30 105 1 17 29
M  V30 106 2 17 64
M  V30 107 1 32 44
M  V30 108 2 32 82
M  V30 109 1 98 100
M  V30 110 1 62 64
M  V30 111 1 80 82
M  V30 112 1 101 104
M  V30 113 1 65 68
M  V30 114 1 83 86
M  V30 115 1 101 105
M  V30 116 1 65 69
M  V30 117 1 83 87
M  V30 118 1 98 101
M  V30 119 1 98 102
M  V30 120 1 97 98
M  V30 121 1 62 65
M  V30 122 1 62 66
M  V30 123 1 61 62
M  V30 124 1 80 83
M  V30 125 1 80 84
M  V30 126 1 79 80
M  V30 127 1 101 103
M  V30 128 1 65 67
M  V30 129 1 83 85
M  V30 130 1 2 14
M  V30 131 1 12 15
M  V30 132 1 10 13
M  V30 133 1 3 5
M  V30 134 1 3 4
M  V30 135 2 1 3
M  V30 136 2 4 6
M  V30 137 1 4 12
M  V30 138 1 1 9
M  V30 139 1 1 2
M  V30 140 1 6 7
M  V30 141 1 6 8
M  V30 142 2 7 9
M  V30 143 1 9 11
M  V30 144 1 7 10
M  V30 145 2 12 99
M  V30 146 2 2 63
M  V30 147 2 10 81
M  V30 148 1 97 114
M  V30 149 1 61 78
M  V30 150 1 79 96
M  V30 151 1 97 99
M  V30 152 1 61 63
M  V30 153 1 79 81
M  V30 154 1 97 109
M  V30 155 1 61 73
M  V30 156 1 79 91
M  V30 157 1 103 108
M  V30 158 1 103 107
M  V30 159 1 103 106
M  V30 160 1 67 72
M  V30 161 1 67 71
M  V30 162 1 67 70
M  V30 163 1 85 90
M  V30 164 1 85 89
M  V30 165 1 85 88
M  V30 166 1 106 111
M  V30 167 1 70 75
M  V30 168 1 106 109
M  V30 169 1 109 112
M  V30 170 1 109 113
M  V30 171 1 70 73
M  V30 172 1 73 76
M  V30 173 1 73 77
M  V30 174 1 88 93
M  V30 175 1 88 91
M  V30 176 1 91 94
M  V30 177 1 91 95
M  V30 178 1 106 110
M  V30 179 1 70 74
M  V30 180 1 88 92
M  V30 END BOND
M  V30 END CTAB
M  END

$$$$
