
     RDKit          3D

  0  0  0  0  0  0  0  0  0  0999 V3000
M  V30 BEGIN CTAB
M  V30 COUNTS 168 180 0 0 0
M  V30 BEGIN ATOM
M  V30 1 C 3.4099 -2.6279 -0.1190 0
M  V30 2 C 3.1329 -3.8524 0.6184 0
M  V30 3 C 3.9811 -1.5385 0.5278 0
M  V30 4 C 4.2868 -0.3737 -0.1763 0
M  V30 5 H 4.2128 -1.5743 1.5812 0
M  V30 6 C 4.0055 -0.3055 -1.5355 0
M  V30 7 C 3.4323 -1.3910 -2.1982 0
M  V30 8 H 4.2361 0.5793 -2.1088 0
M  V30 9 C 3.1332 -2.5448 -1.4837 0
M  V30 10 C 3.1760 -1.3314 -3.6304 0
M  V30 11 H 2.6953 -3.4035 -1.9694 0
M  V30 12 C 4.9224 0.7509 0.4957 0
M  V30 13 H 2.5868 -2.1636 -4.0460 0
M  V30 14 H 3.2366 -3.7859 1.7125 0
M  V30 15 H 4.9909 1.6812 -0.0892 0
M  V30 16 C -1.4791 -3.9572 0.8074 0
M  V30 17 C -0.5523 -4.9587 0.2996 0
M  V30 18 C -2.5078 -3.4871 -0.0002 0
M  V30 19 C -3.4261 -2.5568 0.4869 0
M  V30 20 H -2.6271 -3.8403 -1.0130 0
M  V30 21 C -3.2986 -2.0923 1.7905 0
M  V30 22 C -2.2713 -2.5550 2.6129 0
M  V30 23 H -3.9968 -1.3775 2.1984 0
M  V30 24 C -1.3639 -3.4818 2.1139 0
M  V30 25 C -2.1648 -2.0964 3.9908 0
M  V30 26 H -0.5623 -3.8635 2.7275 0
M  V30 27 C -4.5264 -2.0973 -0.3487 0
M  V30 28 H -1.2449 -2.3863 4.5220 0
M  V30 29 H -0.6162 -5.1651 -0.7801 0
M  V30 30 H -5.1117 -1.2548 0.0512 0
M  V30 31 C -0.3330 1.6514 -3.9576 0
M  V30 32 C 0.9706 1.6840 -4.6053 0
M  V30 33 C -0.7692 2.7424 -3.2152 0
M  V30 34 C -2.0318 2.7401 -2.6223 0
M  V30 35 H -0.1494 3.6175 -3.0936 0
M  V30 36 C -2.8521 1.6282 -2.7710 0
M  V30 37 C -2.4279 0.5258 -3.5131 0
M  V30 38 H -3.8366 1.5986 -2.3298 0
M  V30 39 C -1.1674 0.5425 -4.0983 0
M  V30 40 C -3.3056 -0.6208 -3.7006 0
M  V30 41 H -0.8134 -0.2923 -4.6837 0
M  V30 42 C -2.5013 3.9012 -1.8796 0
M  V30 43 H -2.8438 -1.5064 -4.1638 0
M  V30 44 H 1.6250 2.5227 -4.3207 0
M  V30 45 H -3.4372 3.7628 -1.3163 0
M  V30 46 C 1.5682 2.4014 3.2048 0
M  V30 47 C 2.9096 1.9602 3.5601 0
M  V30 48 C 0.4628 1.8551 3.8458 0
M  V30 49 C -0.8252 2.2968 3.5427 0
M  V30 50 H 0.5765 1.0907 4.5990 0
M  V30 51 C -0.9978 3.2858 2.5820 0
M  V30 52 C 0.1023 3.8434 1.9301 0
M  V30 53 H -1.9808 3.6529 2.3300 0
M  V30 54 C 1.3796 3.3935 2.2425 0
M  V30 55 C -0.0792 4.9079 0.9532 0
M  V30 56 H 2.2508 3.8097 1.7603 0
M  V30 57 C -1.9778 1.7510 4.2455 0
M  V30 58 H 0.8160 5.1846 0.3748 0
M  V30 59 H 2.9645 1.0730 4.2099 0
M  V30 60 H -2.9625 2.0361 3.8436 0
M  V30 61 C 2.5789 -6.1128 0.7907 0
M  V30 62 C 1.1280 -6.5621 0.5234 0
M  V30 63 N 2.8231 -4.9255 0.0340 0
M  V30 64 N 0.2492 -5.5695 1.0567 0
M  V30 65 C 0.8570 -7.8922 1.2316 0
M  V30 66 H 1.0009 -6.6827 -0.5678 0
M  V30 67 C 1.8354 -8.9660 0.7718 0
M  V30 68 H -0.1708 -8.1978 1.0243 0
M  V30 69 H 0.9487 -7.7339 2.3075 0
M  V30 70 C 3.2707 -8.5221 1.0329 0
M  V30 71 H 1.7005 -9.1473 -0.2971 0
M  V30 72 H 1.6296 -9.8994 1.2995 0
M  V30 73 C 3.5527 -7.2004 0.3291 0
M  V30 74 H 3.9689 -9.2826 0.6776 0
M  V30 75 H 3.4232 -8.4016 2.1079 0
M  V30 76 H 3.4495 -7.3185 -0.7509 0
M  V30 77 H 4.5729 -6.8687 0.5339 0
M  V30 78 H 2.6912 -5.9413 1.8766 0
M  V30 79 C 3.3726 -0.3864 -5.7551 0
M  V30 80 C 2.5922 0.9011 -6.0891 0
M  V30 81 N 3.6275 -0.3996 -4.3491 0
M  V30 82 N 1.3120 0.8219 -5.4592 0
M  V30 83 C 2.3907 1.0084 -7.6031 0
M  V30 84 H 3.1794 1.7633 -5.7244 0
M  V30 85 C 3.7270 0.9961 -8.3350 0
M  V30 86 H 1.8445 1.9288 -7.8205 0
M  V30 87 H 1.7745 0.1686 -7.9284 0
M  V30 88 C 4.5012 -0.2752 -8.0035 0
M  V30 89 H 4.3142 1.8671 -8.0349 0
M  V30 90 H 3.5558 1.0610 -9.4115 0
M  V30 91 C 4.7109 -0.3904 -6.4987 0
M  V30 92 H 5.4691 -0.2673 -8.5088 0
M  V30 93 H 3.9427 -1.1435 -8.3605 0
M  V30 94 H 5.3083 0.4478 -6.1358 0
M  V30 95 H 5.2447 -1.3119 -6.2568 0
M  V30 96 H 2.7617 -1.2510 -6.0723 0
M  V30 97 C 6.0251 1.7715 2.2815 0
M  V30 98 C 5.2371 2.1242 3.5592 0
M  V30 99 N 5.3895 0.6514 1.6622 0
M  V30 100 N 3.9383 2.5758 3.1708 0
M  V30 101 C 5.9466 3.2526 4.3125 0
M  V30 102 H 5.1875 1.2202 4.1931 0
M  V30 103 C 7.3762 2.8606 4.6651 0
M  V30 104 H 5.3794 3.4825 5.2169 0
M  V30 105 H 5.9443 4.1425 3.6806 0
M  V30 106 C 8.1561 2.5088 3.4028 0
M  V30 107 H 7.3619 1.9977 5.3350 0
M  V30 108 H 7.8634 3.6851 5.1895 0
M  V30 109 C 7.4605 1.3835 2.6469 0
M  V30 110 H 9.1715 2.2029 3.6623 0
M  V30 111 H 8.2241 3.3904 2.7611 0
M  V30 112 H 7.4273 0.4813 3.2601 0
M  V30 113 H 8.0046 1.1458 1.7301 0
M  V30 114 H 6.0295 2.6596 1.6239 0
M  V30 115 C -5.9052 -2.1866 -2.2295 0
M  V30 116 C -5.3596 -1.7242 -3.5957 0
M  V30 117 N -4.8047 -2.6520 -1.4459 0
M  V30 118 N -4.5237 -0.5857 -3.3781 0
M  V30 119 C -6.5199 -1.3170 -4.5077 0
M  V30 120 H -4.8024 -2.5656 -4.0462 0
M  V30 121 C -7.5004 -2.4685 -4.6929 0
M  V30 122 H -6.1152 -1.0010 -5.4717 0
M  V30 123 H -7.0250 -0.4597 -4.0594 0
M  V30 124 C -8.0388 -2.9288 -3.3425 0
M  V30 125 H -6.9936 -3.3021 -5.1846 0
M  V30 126 H -8.3233 -2.1492 -5.3357 0
M  V30 127 C -6.8919 -3.3406 -2.4277 0
M  V30 128 H -8.7200 -3.7712 -3.4777 0
M  V30 129 H -8.5994 -2.1139 -2.8787 0
M  V30 130 H -6.3512 -4.1855 -2.8576 0
M  V30 131 H -7.2735 -3.6484 -1.4517 0
M  V30 132 H -6.4169 -1.3295 -1.7554 0
M  V30 133 C -2.9526 -1.0187 5.9052 0
M  V30 134 C -3.0055 0.5222 5.9426 0
M  V30 135 N -3.0837 -1.4346 4.5445 0
M  V30 136 N -1.8506 1.0230 5.2665 0
M  V30 137 C -2.9760 1.0080 7.3944 0
M  V30 138 H -3.9427 0.8462 5.4550 0
M  V30 139 C -4.1338 0.4203 8.1916 0
M  V30 140 H -3.0226 2.0991 7.4009 0
M  V30 141 H -2.0237 0.7108 7.8371 0
M  V30 142 C -4.0844 -1.1034 8.1532 0
M  V30 143 H -5.0797 0.7634 7.7662 0
M  V30 144 H -4.0830 0.7712 9.2244 0
M  V30 145 C -4.1174 -1.5982 6.7125 0
M  V30 146 H -4.9307 -1.5201 8.7031 0
M  V30 147 H -3.1671 -1.4488 8.6354 0
M  V30 148 H -5.0509 -1.2995 6.2321 0
M  V30 149 H -4.0585 -2.6883 6.6814 0
M  V30 150 H -1.9913 -1.3406 6.3449 0
M  V30 151 C -2.3884 6.1254 -1.1821 0
M  V30 152 C -1.3214 6.5462 -0.1513 0
M  V30 153 N -1.8865 5.0012 -1.9073 0
M  V30 154 N -1.1862 5.4919 0.8038 0
M  V30 155 C -1.7735 7.8155 0.5760 0
M  V30 156 H -0.3769 6.7372 -0.6923 0
M  V30 157 C -2.0314 8.9483 -0.4098 0
M  V30 158 H -1.0028 8.1023 1.2945 0
M  V30 159 H -2.6831 7.5865 1.1339 0
M  V30 160 C -3.0843 8.5327 -1.4315 0
M  V30 161 H -1.1024 9.1984 -0.9275 0
M  V30 162 H -2.3639 9.8364 0.1315 0
M  V30 163 C -2.6425 7.2721 -2.1645 0
M  V30 164 H -3.2464 9.3373 -2.1515 0
M  V30 165 H -4.0310 8.3433 -0.9202 0
M  V30 166 H -1.7212 7.4608 -2.7183 0
M  V30 167 H -3.4057 6.9591 -2.8802 0
M  V30 168 H -3.3179 5.8833 -0.6357 0
M  V30 END ATOM
M  V30 BEGIN BOND
M  V30 1 1 139 143
M  V30 2 1 160 165
M  V30 3 1 124 129
M  V30 4 1 139 144
M  V30 5 1 160 164
M  V30 6 1 124 128
M  V30 7 1 142 146
M  V30 8 1 157 162
M  V30 9 1 121 126
M  V30 10 1 139 142
M  V30 11 1 137 139
M  V30 12 1 157 160
M  V30 13 1 160 163
M  V30 14 1 121 124
M  V30 15 1 124 127
M  V30 16 1 145 148
M  V30 17 1 155 159
M  V30 18 1 119 123
M  V30 19 1 137 140
M  V30 20 1 134 138
M  V30 21 1 142 145
M  V30 22 1 142 147
M  V30 23 1 151 168
M  V30 24 1 127 131
M  V30 25 1 163 167
M  V30 26 1 115 132
M  V30 27 1 155 157
M  V30 28 1 157 161
M  V30 29 1 119 121
M  V30 30 1 121 125
M  V30 31 1 134 137
M  V30 32 1 137 141
M  V30 33 1 145 149
M  V30 34 1 133 145
M  V30 35 1 151 163
M  V30 36 1 163 166
M  V30 37 1 115 127
M  V30 38 1 127 130
M  V30 39 1 155 158
M  V30 40 1 152 155
M  V30 41 1 119 122
M  V30 42 1 116 119
M  V30 43 1 57 60
M  V30 44 1 27 30
M  V30 45 1 42 45
M  V30 46 1 133 134
M  V30 47 1 134 136
M  V30 48 1 151 152
M  V30 49 1 151 153
M  V30 50 1 115 116
M  V30 51 1 115 117
M  V30 52 1 51 53
M  V30 53 1 21 23
M  V30 54 1 36 38
M  V30 55 1 133 135
M  V30 56 1 133 150
M  V30 57 1 152 154
M  V30 58 1 152 156
M  V30 59 1 116 118
M  V30 60 1 116 120
M  V30 61 2 57 136
M  V30 62 1 49 57
M  V30 63 2 27 117
M  V30 64 1 19 27
M  V30 65 2 42 153
M  V30 66 1 34 42
M  V30 67 2 25 135
M  V30 68 2 55 154
M  V30 69 2 40 118
M  V30 70 2 49 51
M  V30 71 1 51 52
M  V30 72 2 19 21
M  V30 73 1 21 22
M  V30 74 2 34 36
M  V30 75 1 36 37
M  V30 76 1 48 49
M  V30 77 1 18 19
M  V30 78 1 33 34
M  V30 79 1 22 25
M  V30 80 1 25 28
M  V30 81 1 52 55
M  V30 82 1 55 58
M  V30 83 1 37 40
M  V30 84 1 40 43
M  V30 85 2 22 24
M  V30 86 2 52 54
M  V30 87 2 37 39
M  V30 88 1 48 50
M  V30 89 2 46 48
M  V30 90 1 18 20
M  V30 91 2 16 18
M  V30 92 1 33 35
M  V30 93 2 31 33
M  V30 94 1 46 54
M  V30 95 1 54 56
M  V30 96 1 16 24
M  V30 97 1 24 26
M  V30 98 1 31 39
M  V30 99 1 39 41
M  V30 100 1 46 47
M  V30 101 1 16 17
M  V30 102 1 31 32
M  V30 103 1 47 59
M  V30 104 2 47 100
M  V30 105 1 17 29
M  V30 106 2 17 64
M  V30 107 1 32 44
M  V30 108 2 32 82
M  V30 109 1 98 100
M  V30 110 1 62 64
M  V30 111 1 80 82
M  V30 112 1 101 104
M  V30 113 1 65 68
M  V30 114 1 83 86
M  V30 115 1 101 105
M  V30 116 1 65 69
M  V30 117 1 83 87
M  V30 118 1 98 101
M  V30 119 1 98 102
M  V30 120 1 97 98
M  V30 121 1 62 65
M  V30 122 1 62 66
M  V30 123 1 61 62
M  V30 124 1 80 83
M  V30 125 1 80 84
M  V30 126 1 79 80
M  V30 127 1 101 103
M  V30 128 1 65 67
M  V30 129 1 83 85
M  V30 130 1 2 14
M  V30 131 1 12 15
M  V30 132 1 10 13
M  V30 133 1 3 5
M  V30 134 1 3 4
M  V30 135 2 1 3
M  V30 136 2 4 6
M  V30 137 1 4 12
M  V30 138 1 1 9
M  V30 139 1 1 2
M  V30 140 1 6 7
M  V30 141 1 6 8
M  V30 142 2 7 9
M  V30 143 1 9 11
M  V30 144 1 7 10
M  V30 145 2 12 99
M  V30 146 2 2 63
M  V30 147 2 10 81
M  V30 148 1 97 114
M  V30 149 1 61 78
M  V30 150 1 79 96
M  V30 151 1 97 99
M  V30 152 1 61 63
M  V30 153 1 79 81
M  V30 154 1 97 109
M  V30 155 1 61 73
M  V30 156 1 79 91
M  V30 157 1 103 108
M  V30 158 1 103 107
M  V30 159 1 103 106
M  V30 160 1 67 72
M  V30 161 1 67 71
M  V30 162 1 67 70
M  V30 163 1 85 90
M  V30 164 1 85 89
M  V30 165 1 85 88
M  V30 166 1 106 111
M  V30 167 1 70 75
M  V30 168 1 106 109
M  V30 169 1 109 112
M  V30 170 1 109 113
M  V30 171 1 70 73
M  V30 172 1 73 76
M  V30 173 1 73 77
M  V30 174 1 88 93
M  V30 175 1 88 91
M  V30 176 1 91 94
M  V30 177 1 91 95
M  V30 178 1 106 110
M  V30 179 1 70 74
M  V30 180 1 88 92
M  V30 END BOND
M  V30 END CTAB
M  END

$$$$
