
     RDKit          3D

  0  0  0  0  0  0  0  0  0  0999 V3000
M  V30 BEGIN CTAB
M  V30 COUNTS 168 180 0 0 0
M  V30 BEGIN ATOM
M  V30 1 C -3.4362 0.8924 -2.4380 0
M  V30 2 C -3.0628 1.7671 -3.5405 0
M  V30 3 C -3.8627 1.4346 -1.2315 0
M  V30 4 C -4.2598 0.6072 -0.1811 0
M  V30 5 H -3.9093 2.5029 -1.0859 0
M  V30 6 C -4.2165 -0.7719 -0.3463 0
M  V30 7 C -3.7907 -1.3306 -1.5515 0
M  V30 8 H -4.5234 -1.4382 0.4454 0
M  V30 9 C -3.3980 -0.4937 -2.5892 0
M  V30 10 C -3.7850 -2.7750 -1.7357 0
M  V30 11 H -3.0698 -0.8955 -3.5357 0
M  V30 12 C -4.7446 1.1787 1.0674 0
M  V30 13 H -3.2950 -3.1384 -2.6524 0
M  V30 14 H -2.9741 2.8365 -3.2941 0
M  V30 15 H -4.8927 0.4666 1.8940 0
M  V30 16 C 1.5089 1.1977 -3.8455 0
M  V30 17 C 0.4863 1.0262 -4.8676 0
M  V30 18 C 2.3924 0.1626 -3.5635 0
M  V30 19 C 3.4014 0.3274 -2.6145 0
M  V30 20 H 2.3268 -0.7825 -4.0804 0
M  V30 21 C 3.5118 1.5379 -1.9408 0
M  V30 22 C 2.6323 2.5859 -2.2131 0
M  V30 23 H 4.2856 1.6984 -1.2058 0
M  V30 24 C 1.6321 2.4072 -3.1613 0
M  V30 25 C 2.7760 3.8661 -1.5345 0
M  V30 26 H 0.9405 3.2010 -3.3986 0
M  V30 27 C 4.3504 -0.7450 -2.3511 0
M  V30 28 H 1.9558 4.5844 -1.6887 0
M  V30 29 H 0.3578 0.0009 -5.2477 0
M  V30 30 H 5.0145 -0.5948 -1.4858 0
M  V30 31 C -0.3206 -4.1769 0.9755 0
M  V30 32 C -1.7156 -4.5939 0.9692 0
M  V30 33 C 0.2615 -3.7104 2.1482 0
M  V30 34 C 1.6072 -3.3447 2.1776 0
M  V30 35 H -0.3085 -3.6347 3.0615 0
M  V30 36 C 2.3646 -3.4408 1.0165 0
M  V30 37 C 1.7943 -3.9071 -0.1680 0
M  V30 38 H 3.4098 -3.1716 1.0086 0
M  V30 39 C 0.4521 -4.2680 -0.1821 0
M  V30 40 C 2.6008 -4.0447 -1.3726 0
M  V30 41 H -0.0161 -4.6383 -1.0813 0
M  V30 42 C 2.2237 -2.8952 3.4178 0
M  V30 43 H 2.0464 -4.2698 -2.2967 0
M  V30 44 H -2.2922 -4.3479 1.8745 0
M  V30 45 H 3.2396 -2.4811 3.3248 0
M  V30 46 C -0.9366 2.9755 2.9607 0
M  V30 47 C -2.2056 3.6185 2.6504 0
M  V30 48 C 0.2508 3.5048 2.4695 0
M  V30 49 C 1.4763 2.9215 2.7915 0
M  V30 50 H 0.2523 4.3833 1.8427 0
M  V30 51 C 1.5018 1.7940 3.6035 0
M  V30 52 C 0.3180 1.2513 4.1037 0
M  V30 53 H 2.4343 1.3237 3.8754 0
M  V30 54 C -0.8955 1.8433 3.7747 0
M  V30 55 C 0.3512 0.0941 4.9870 0
M  V30 56 H -1.8276 1.4509 4.1513 0
M  V30 57 C 2.7209 3.5029 2.3084 0
M  V30 58 H -0.6243 -0.3645 5.2119 0
M  V30 59 H -2.1668 4.4071 1.8829 0
M  V30 60 H 3.6272 2.9004 2.4753 0
M  V30 61 C -2.5373 2.2191 -5.7689 0
M  V30 62 C -1.1648 1.7919 -6.3277 0
M  V30 63 N -2.8826 1.3265 -4.7078 0
M  V30 64 N -0.1853 1.9977 -5.3078 0
M  V30 65 C -0.8048 2.6567 -7.5387 0
M  V30 66 H -1.2312 0.7304 -6.6282 0
M  V30 67 C -1.8714 2.5526 -8.6218 0
M  V30 68 H 0.1647 2.3346 -7.9249 0
M  V30 69 H -0.7054 3.6911 -7.2052 0
M  V30 70 C -3.2297 2.9719 -8.0701 0
M  V30 71 H -1.9275 1.5216 -8.9790 0
M  V30 72 H -1.5980 3.1867 -9.4676 0
M  V30 73 C -3.6001 2.1146 -6.8661 0
M  V30 74 H -3.9955 2.8702 -8.8417 0
M  V30 75 H -3.1912 4.0220 -7.7710 0
M  V30 76 H -3.6879 1.0677 -7.1612 0
M  V30 77 H -4.5618 2.4288 -6.4549 0
M  V30 78 H -2.4562 3.2644 -5.4198 0
M  V30 79 C -4.3254 -4.9644 -1.1356 0
M  V30 80 C -3.5864 -5.6342 0.0407 0
M  V30 81 N -4.3334 -3.5535 -0.9099 0
M  V30 82 N -2.2186 -5.2228 -0.0006 0
M  V30 83 C -3.6476 -7.1570 -0.1068 0
M  V30 84 H -4.0824 -5.3256 0.9787 0
M  V30 85 C -5.0904 -7.6429 -0.1692 0
M  V30 86 H -3.1271 -7.6131 0.7381 0
M  V30 87 H -3.1157 -7.4360 -1.0179 0
M  V30 88 C -5.8234 -6.9794 -1.3302 0
M  V30 89 H -5.5974 -7.3985 0.7670 0
M  V30 90 H -5.1067 -8.7284 -0.2868 0
M  V30 91 C -5.7720 -5.4629 -1.1915 0
M  V30 92 H -6.8637 -7.3099 -1.3549 0
M  V30 93 H -5.3544 -7.2747 -2.2716 0
M  V30 94 H -6.2789 -5.1502 -0.2770 0
M  V30 95 H -6.2761 -4.9849 -2.0342 0
M  V30 96 H -3.7978 -5.2305 -2.0695 0
M  V30 97 C -5.4988 2.9280 2.4157 0
M  V30 98 C -4.4940 3.9791 2.9290 0
M  V30 99 N -5.0048 2.4069 1.1802 0
M  V30 100 N -3.2723 3.3093 3.2465 0
M  V30 101 C -5.0373 4.6413 4.1980 0
M  V30 102 H -4.3554 4.7376 2.1372 0
M  V30 103 C -6.3926 5.2881 3.9401 0
M  V30 104 H -4.3172 5.3871 4.5413 0
M  V30 105 H -5.1248 3.8784 4.9736 0
M  V30 106 C -7.3867 4.2505 3.4299 0
M  V30 107 H -6.2817 6.0807 3.1964 0
M  V30 108 H -6.7634 5.7416 4.8616 0
M  V30 109 C -6.8575 3.5875 2.1642 0
M  V30 110 H -8.3484 4.7234 3.2211 0
M  V30 111 H -7.5453 3.4913 4.1992 0
M  V30 112 H -6.7386 4.3284 1.3717 0
M  V30 113 H -7.5571 2.8273 1.8100 0
M  V30 114 H -5.5973 2.1415 3.1858 0
M  V30 115 C 5.3805 -2.7881 -2.8106 0
M  V30 116 C 4.6170 -4.1017 -2.5467 0
M  V30 117 N 4.4223 -1.7652 -3.0881 0
M  V30 118 N 3.8568 -3.9405 -1.3475 0
M  V30 119 C 5.6107 -5.2497 -2.3501 0
M  V30 120 H 3.9719 -4.3060 -3.4205 0
M  V30 121 C 6.5187 -5.4014 -3.5643 0
M  V30 122 H 5.0524 -6.1715 -2.1732 0
M  V30 123 H 6.2046 -5.0416 -1.4585 0
M  V30 124 C 7.2724 -4.1023 -3.8283 0
M  V30 125 H 5.9162 -5.6554 -4.4395 0
M  V30 126 H 7.2248 -6.2167 -3.3942 0
M  V30 127 C 6.2923 -2.9530 -4.0296 0
M  V30 128 H 7.9013 -4.2069 -4.7146 0
M  V30 129 H 7.9227 -3.8812 -2.9787 0
M  V30 130 H 5.6669 -3.1394 -4.9043 0
M  V30 131 H 6.8302 -2.0171 -4.1954 0
M  V30 132 H 5.9854 -2.5559 -1.9153 0
M  V30 133 C 3.9068 5.4149 -0.2043 0
M  V30 134 C 3.9994 5.1854 1.3180 0
M  V30 135 N 3.7912 4.1402 -0.8394 0
M  V30 136 N 2.7563 4.6378 1.7611 0
M  V30 137 C 4.2324 6.5200 2.0315 0
M  V30 138 H 4.8450 4.5009 1.5119 0
M  V30 139 C 5.4974 7.1993 1.5219 0
M  V30 140 H 4.3034 6.3364 3.1058 0
M  V30 141 H 3.3647 7.1589 1.8575 0
M  V30 142 C 5.4085 7.4244 0.0163 0
M  V30 143 H 6.3627 6.5706 1.7443 0
M  V30 144 H 5.6339 8.1528 2.0363 0
M  V30 145 C 5.1807 6.1015 -0.7045 0
M  V30 146 H 6.3277 7.8870 -0.3487 0
M  V30 147 H 4.5811 8.1039 -0.2006 0
M  V30 148 H 6.0234 5.4290 -0.5342 0
M  V30 149 H 5.0933 6.2631 -1.7811 0
M  V30 150 H 3.0293 6.0566 -0.4027 0
M  V30 151 C 2.2823 -2.5697 5.7280 0
M  V30 152 C 1.4193 -1.4600 6.3620 0
M  V30 153 N 1.6378 -3.0030 4.5286 0
M  V30 154 N 1.4282 -0.3334 5.4830 0
M  V30 155 C 2.0184 -1.0405 7.7073 0
M  V30 156 H 0.3999 -1.8598 6.5109 0
M  V30 157 C 2.1267 -2.2306 8.6526 0
M  V30 158 H 1.3901 -0.2615 8.1442 0
M  V30 159 H 3.0055 -0.6122 7.5254 0
M  V30 160 C 2.9774 -3.3300 8.0259 0
M  V30 161 H 1.1279 -2.6202 8.8628 0
M  V30 162 H 2.5673 -1.9083 9.5983 0
M  V30 163 C 2.3878 -3.7580 6.6878 0
M  V30 164 H 3.0302 -4.1910 8.6953 0
M  V30 165 H 3.9939 -2.9596 7.8737 0
M  V30 166 H 1.3889 -4.1739 6.8313 0
M  V30 167 H 3.0085 -4.5288 6.2259 0
M  V30 168 H 3.2867 -2.1536 5.5303 0
M  V30 END ATOM
M  V30 BEGIN BOND
M  V30 1 1 139 143
M  V30 2 1 160 165
M  V30 3 1 124 129
M  V30 4 1 139 144
M  V30 5 1 160 164
M  V30 6 1 124 128
M  V30 7 1 142 146
M  V30 8 1 157 162
M  V30 9 1 121 126
M  V30 10 1 139 142
M  V30 11 1 137 139
M  V30 12 1 157 160
M  V30 13 1 160 163
M  V30 14 1 121 124
M  V30 15 1 124 127
M  V30 16 1 145 148
M  V30 17 1 155 159
M  V30 18 1 119 123
M  V30 19 1 137 140
M  V30 20 1 134 138
M  V30 21 1 142 145
M  V30 22 1 142 147
M  V30 23 1 151 168
M  V30 24 1 127 131
M  V30 25 1 163 167
M  V30 26 1 115 132
M  V30 27 1 155 157
M  V30 28 1 157 161
M  V30 29 1 119 121
M  V30 30 1 121 125
M  V30 31 1 134 137
M  V30 32 1 137 141
M  V30 33 1 145 149
M  V30 34 1 133 145
M  V30 35 1 151 163
M  V30 36 1 163 166
M  V30 37 1 115 127
M  V30 38 1 127 130
M  V30 39 1 155 158
M  V30 40 1 152 155
M  V30 41 1 119 122
M  V30 42 1 116 119
M  V30 43 1 57 60
M  V30 44 1 27 30
M  V30 45 1 42 45
M  V30 46 1 133 134
M  V30 47 1 134 136
M  V30 48 1 151 152
M  V30 49 1 151 153
M  V30 50 1 115 116
M  V30 51 1 115 117
M  V30 52 1 51 53
M  V30 53 1 21 23
M  V30 54 1 36 38
M  V30 55 1 133 135
M  V30 56 1 133 150
M  V30 57 1 152 154
M  V30 58 1 152 156
M  V30 59 1 116 118
M  V30 60 1 116 120
M  V30 61 2 57 136
M  V30 62 1 49 57
M  V30 63 2 27 117
M  V30 64 1 19 27
M  V30 65 2 42 153
M  V30 66 1 34 42
M  V30 67 2 25 135
M  V30 68 2 55 154
M  V30 69 2 40 118
M  V30 70 2 49 51
M  V30 71 1 51 52
M  V30 72 2 19 21
M  V30 73 1 21 22
M  V30 74 2 34 36
M  V30 75 1 36 37
M  V30 76 1 48 49
M  V30 77 1 18 19
M  V30 78 1 33 34
M  V30 79 1 22 25
M  V30 80 1 25 28
M  V30 81 1 52 55
M  V30 82 1 55 58
M  V30 83 1 37 40
M  V30 84 1 40 43
M  V30 85 2 22 24
M  V30 86 2 52 54
M  V30 87 2 37 39
M  V30 88 1 48 50
M  V30 89 2 46 48
M  V30 90 1 18 20
M  V30 91 2 16 18
M  V30 92 1 33 35
M  V30 93 2 31 33
M  V30 94 1 46 54
M  V30 95 1 54 56
M  V30 96 1 16 24
M  V30 97 1 24 26
M  V30 98 1 31 39
M  V30 99 1 39 41
M  V30 100 1 46 47
M  V30 101 1 16 17
M  V30 102 1 31 32
M  V30 103 1 47 59
M  V30 104 2 47 100
M  V30 105 1 17 29
M  V30 106 2 17 64
M  V30 107 1 32 44
M  V30 108 2 32 82
M  V30 109 1 98 100
M  V30 110 1 62 64
M  V30 111 1 80 82
M  V30 112 1 101 104
M  V30 113 1 65 68
M  V30 114 1 83 86
M  V30 115 1 101 105
M  V30 116 1 65 69
M  V30 117 1 83 87
M  V30 118 1 98 101
M  V30 119 1 98 102
M  V30 120 1 97 98
M  V30 121 1 62 65
M  V30 122 1 62 66
M  V30 123 1 61 62
M  V30 124 1 80 83
M  V30 125 1 80 84
M  V30 126 1 79 80
M  V30 127 1 101 103
M  V30 128 1 65 67
M  V30 129 1 83 85
M  V30 130 1 2 14
M  V30 131 1 12 15
M  V30 132 1 10 13
M  V30 133 1 3 5
M  V30 134 1 3 4
M  V30 135 2 1 3
M  V30 136 2 4 6
M  V30 137 1 4 12
M  V30 138 1 1 9
M  V30 139 1 1 2
M  V30 140 1 6 7
M  V30 141 1 6 8
M  V30 142 2 7 9
M  V30 143 1 9 11
M  V30 144 1 7 10
M  V30 145 2 12 99
M  V30 146 2 2 63
M  V30 147 2 10 81
M  V30 148 1 97 114
M  V30 149 1 61 78
M  V30 150 1 79 96
M  V30 151 1 97 99
M  V30 152 1 61 63
M  V30 153 1 79 81
M  V30 154 1 97 109
M  V30 155 1 61 73
M  V30 156 1 79 91
M  V30 157 1 103 108
M  V30 158 1 103 107
M  V30 159 1 103 106
M  V30 160 1 67 72
M  V30 161 1 67 71
M  V30 162 1 67 70
M  V30 163 1 85 90
M  V30 164 1 85 89
M  V30 165 1 85 88
M  V30 166 1 106 111
M  V30 167 1 70 75
M  V30 168 1 106 109
M  V30 169 1 109 112
M  V30 170 1 109 113
M  V30 171 1 70 73
M  V30 172 1 73 76
M  V30 173 1 73 77
M  V30 174 1 88 93
M  V30 175 1 88 91
M  V30 176 1 91 94
M  V30 177 1 91 95
M  V30 178 1 106 110
M  V30 179 1 70 74
M  V30 180 1 88 92
M  V30 END BOND
M  V30 END CTAB
M  END

$$$$
