
     RDKit          3D

  0  0  0  0  0  0  0  0  0  0999 V3000
M  V30 BEGIN CTAB
M  V30 COUNTS 168 180 0 0 0
M  V30 BEGIN ATOM
M  V30 1 C -3.8906 0.6000 0.1264 0
M  V30 2 C -4.3013 1.9897 0.2676 0
M  V30 3 C -3.7075 -0.1911 1.2543 0
M  V30 4 C -3.3518 -1.5341 1.1306 0
M  V30 5 H -3.8496 0.2105 2.2458 0
M  V30 6 C -3.1708 -2.0772 -0.1357 0
M  V30 7 C -3.3509 -1.2955 -1.2770 0
M  V30 8 H -2.9018 -3.1145 -0.2642 0
M  V30 9 C -3.7053 0.0411 -1.1382 0
M  V30 10 C -3.2002 -1.8775 -2.6031 0
M  V30 11 H -3.8582 0.6699 -2.0020 0
M  V30 12 C -3.2005 -2.3706 2.3129 0
M  V30 13 H -3.2088 -1.1646 -3.4423 0
M  V30 14 H -4.2777 2.3940 1.2915 0
M  V30 15 H -2.7729 -3.3705 2.1401 0
M  V30 16 C -0.5436 4.3431 -1.0203 0
M  V30 17 C -1.9038 4.4215 -1.5337 0
M  V30 18 C 0.5159 4.1066 -1.8881 0
M  V30 19 C 1.8277 4.0681 -1.4152 0
M  V30 20 H 0.3495 3.9624 -2.9446 0
M  V30 21 C 2.0690 4.2587 -0.0599 0
M  V30 22 C 1.0158 4.4970 0.8231 0
M  V30 23 H 3.0730 4.2410 0.3355 0
M  V30 24 C -0.2859 4.5327 0.3375 0
M  V30 25 C 1.2759 4.7362 2.2357 0
M  V30 26 H -1.1211 4.7212 0.9945 0
M  V30 27 C 2.9384 3.8608 -2.3335 0
M  V30 28 H 0.3892 4.7619 2.8881 0
M  V30 29 H -2.0379 4.1100 -2.5812 0
M  V30 30 H 3.9205 3.6900 -1.8660 0
M  V30 31 C 1.3477 -2.6024 -2.9333 0
M  V30 32 C 0.2482 -3.5432 -3.0945 0
M  V30 33 C 2.3689 -2.8728 -2.0302 0
M  V30 34 C 3.4479 -1.9993 -1.8943 0
M  V30 35 H 2.3571 -3.7676 -1.4270 0
M  V30 36 C 3.4904 -0.8441 -2.6656 0
M  V30 37 C 2.4728 -0.5593 -3.5763 0
M  V30 38 H 4.3148 -0.1519 -2.5881 0
M  V30 39 C 1.4040 -1.4390 -3.7009 0
M  V30 40 C 2.5406 0.6314 -4.4117 0
M  V30 41 H 0.6048 -1.2496 -4.4011 0
M  V30 42 C 4.5360 -2.3064 -0.9767 0
M  V30 43 H 1.6320 0.8639 -4.9882 0
M  V30 44 H 0.1981 -4.3521 -2.3490 0
M  V30 45 H 5.2672 -1.4994 -0.8140 0
M  V30 46 C 0.6709 -0.7720 4.2548 0
M  V30 47 C -0.6599 -0.9137 4.8283 0
M  V30 48 C 1.3180 0.4573 4.2920 0
M  V30 49 C 2.6085 0.5973 3.7813 0
M  V30 50 H 0.8444 1.3236 4.7277 0
M  V30 51 C 3.2432 -0.5052 3.2220 0
M  V30 52 C 2.6061 -1.7454 3.1774 0
M  V30 53 H 4.2436 -0.4303 2.8243 0
M  V30 54 C 1.3204 -1.8699 3.6902 0
M  V30 55 C 3.2894 -2.9077 2.6274 0
M  V30 56 H 0.8039 -2.8174 3.6763 0
M  V30 57 C 3.2989 1.8770 3.8589 0
M  V30 58 H 2.6684 -3.8061 2.4870 0
M  V30 59 H -1.1608 0.0251 5.1116 0
M  V30 60 H 4.2448 1.9453 3.2995 0
M  V30 61 C -5.1023 4.0284 -0.5376 0
M  V30 62 C -4.1754 4.9308 -1.3771 0
M  V30 63 N -4.6868 2.6733 -0.7189 0
M  V30 64 N -2.8582 4.8481 -0.8295 0
M  V30 65 C -4.6523 6.3835 -1.2967 0
M  V30 66 H -4.2099 4.5796 -2.4245 0
M  V30 67 C -6.0925 6.5138 -1.7769 0
M  V30 68 H -3.9898 7.0050 -1.9029 0
M  V30 69 H -4.5685 6.7162 -0.2607 0
M  V30 70 C -7.0099 5.6199 -0.9496 0
M  V30 71 H -6.1532 6.2221 -2.8280 0
M  V30 72 H -6.4123 7.5548 -1.6982 0
M  V30 73 C -6.5466 4.1703 -1.0256 0
M  V30 74 H -8.0363 5.6960 -1.3143 0
M  V30 75 H -6.9976 5.9517 0.0912 0
M  V30 76 H -6.5987 3.8111 -2.0548 0
M  V30 77 H -7.1884 3.5317 -0.4149 0
M  V30 78 H -5.0274 4.3459 0.5182 0
M  V30 79 C -2.9712 -3.6575 -4.0948 0
M  V30 80 C -1.6264 -4.4074 -4.1822 0
M  V30 81 N -3.0965 -3.1218 -2.7761 0
M  V30 82 N -0.5736 -3.4509 -4.0458 0
M  V30 83 C -1.4993 -5.0889 -5.5474 0
M  V30 84 H -1.6026 -5.1653 -3.3783 0
M  V30 85 C -2.6565 -6.0503 -5.7887 0
M  V30 86 H -0.5462 -5.6206 -5.5873 0
M  V30 87 H -1.4840 -4.3159 -6.3176 0
M  V30 88 C -3.9872 -5.3108 -5.6998 0
M  V30 89 H -2.6321 -6.8444 -5.0389 0
M  V30 90 H -2.5496 -6.5130 -6.7719 0
M  V30 91 C -4.1261 -4.6315 -4.3430 0
M  V30 92 H -4.8144 -6.0083 -5.8467 0
M  V30 93 H -4.0376 -4.5584 -6.4902 0
M  V30 94 H -4.1244 -5.3770 -3.5459 0
M  V30 95 H -5.0680 -4.0818 -4.2856 0
M  V30 96 H -2.9736 -2.8648 -4.8648 0
M  V30 97 C -3.4197 -2.8381 4.5889 0
M  V30 98 C -2.4878 -2.1412 5.6007 0
M  V30 99 N -3.5650 -1.9809 3.4548 0
M  V30 100 N -1.1883 -2.0429 5.0145 0
M  V30 101 C -2.3899 -2.9782 6.8790 0
M  V30 102 H -2.9129 -1.1476 5.8318 0
M  V30 103 C -3.7660 -3.1999 7.4944 0
M  V30 104 H -1.7336 -2.4656 7.5854 0
M  V30 105 H -1.9297 -3.9357 6.6287 0
M  V30 106 C -4.6897 -3.8866 6.4940 0
M  V30 107 H -4.1948 -2.2373 7.7826 0
M  V30 108 H -3.6705 -3.8086 8.3958 0
M  V30 109 C -4.7975 -3.0598 5.2188 0
M  V30 110 H -5.6820 -4.0192 6.9296 0
M  V30 111 H -4.2929 -4.8757 6.2539 0
M  V30 112 H -5.2365 -2.0847 5.4373 0
M  V30 113 H -5.4400 -3.5612 4.4916 0
M  V30 114 H -2.9677 -3.8094 4.3173 0
M  V30 115 C 3.9020 3.7166 -4.4541 0
M  V30 116 C 3.6220 2.4821 -5.3349 0
M  V30 117 N 2.7845 3.9044 -3.5839 0
M  V30 118 N 3.5861 1.3313 -4.4886 0
M  V30 119 C 4.7479 2.3073 -6.3576 0
M  V30 120 H 2.6604 2.6421 -5.8555 0
M  V30 121 C 4.8979 3.5515 -7.2243 0
M  V30 122 H 4.5282 1.4347 -6.9766 0
M  V30 123 H 5.6754 2.1097 -5.8174 0
M  V30 124 C 5.1721 4.7736 -6.3545 0
M  V30 125 H 3.9795 3.7106 -7.7941 0
M  V30 126 H 5.7137 3.4065 -7.9354 0
M  V30 127 C 4.0549 4.9596 -5.3351 0
M  V30 128 H 5.2521 5.6669 -6.9772 0
M  V30 129 H 6.1226 4.6414 -5.8325 0
M  V30 130 H 3.1062 5.1394 -5.8437 0
M  V30 131 H 4.2609 5.8205 -4.6956 0
M  V30 132 H 4.8366 3.5341 -3.8932 0
M  V30 133 C 2.6566 5.1817 4.0639 0
M  V30 134 C 3.5679 4.0675 4.6175 0
M  V30 135 N 2.4418 4.9301 2.6738 0
M  V30 136 N 2.8522 2.8328 4.5485 0
M  V30 137 C 3.9118 4.3569 6.0813 0
M  V30 138 H 4.4910 4.0446 4.0103 0
M  V30 139 C 4.5891 5.7140 6.2263 0
M  V30 140 H 4.5634 3.5630 6.4527 0
M  V30 141 H 2.9884 4.3318 6.6627 0
M  V30 142 C 3.6902 6.8164 5.6767 0
M  V30 143 H 5.5340 5.7094 5.6781 0
M  V30 144 H 4.8121 5.9015 7.2786 0
M  V30 145 C 3.3450 6.5406 4.2185 0
M  V30 146 H 4.1903 7.7836 5.7582 0
M  V30 147 H 2.7713 6.8624 6.2656 0
M  V30 148 H 4.2511 6.5383 3.6101 0
M  V30 149 H 2.6822 7.3166 3.8294 0
M  V30 150 H 1.7117 5.1697 4.6368 0
M  V30 151 C 5.7376 -3.7085 0.4504 0
M  V30 152 C 5.1615 -4.0562 1.8380 0
M  V30 153 N 4.6448 -3.4364 -0.4289 0
M  V30 154 N 4.5207 -2.8896 2.3580 0
M  V30 155 C 6.2949 -4.4598 2.7850 0
M  V30 156 H 4.4541 -4.8965 1.7159 0
M  V30 157 C 7.0791 -5.6412 2.2274 0
M  V30 158 H 5.8674 -4.7101 3.7582 0
M  V30 159 H 6.9532 -3.5998 2.9194 0
M  V30 160 C 7.6471 -5.2999 0.8540 0
M  V30 161 H 6.4193 -6.5078 2.1418 0
M  V30 162 H 7.8876 -5.9010 2.9137 0
M  V30 163 C 6.5267 -4.9005 -0.0982 0
M  V30 164 H 8.1854 -6.1582 0.4469 0
M  V30 165 H 8.3551 -4.4735 0.9496 0
M  V30 166 H 5.8364 -5.7340 -0.2395 0
M  V30 167 H 6.9334 -4.6328 -1.0757 0
M  V30 168 H 6.4042 -2.8344 0.5640 0
M  V30 END ATOM
M  V30 BEGIN BOND
M  V30 1 1 139 143
M  V30 2 1 160 165
M  V30 3 1 124 129
M  V30 4 1 139 144
M  V30 5 1 160 164
M  V30 6 1 124 128
M  V30 7 1 142 146
M  V30 8 1 157 162
M  V30 9 1 121 126
M  V30 10 1 139 142
M  V30 11 1 137 139
M  V30 12 1 157 160
M  V30 13 1 160 163
M  V30 14 1 121 124
M  V30 15 1 124 127
M  V30 16 1 145 148
M  V30 17 1 155 159
M  V30 18 1 119 123
M  V30 19 1 137 140
M  V30 20 1 134 138
M  V30 21 1 142 145
M  V30 22 1 142 147
M  V30 23 1 151 168
M  V30 24 1 127 131
M  V30 25 1 163 167
M  V30 26 1 115 132
M  V30 27 1 155 157
M  V30 28 1 157 161
M  V30 29 1 119 121
M  V30 30 1 121 125
M  V30 31 1 134 137
M  V30 32 1 137 141
M  V30 33 1 145 149
M  V30 34 1 133 145
M  V30 35 1 151 163
M  V30 36 1 163 166
M  V30 37 1 115 127
M  V30 38 1 127 130
M  V30 39 1 155 158
M  V30 40 1 152 155
M  V30 41 1 119 122
M  V30 42 1 116 119
M  V30 43 1 57 60
M  V30 44 1 27 30
M  V30 45 1 42 45
M  V30 46 1 133 134
M  V30 47 1 134 136
M  V30 48 1 151 152
M  V30 49 1 151 153
M  V30 50 1 115 116
M  V30 51 1 115 117
M  V30 52 1 51 53
M  V30 53 1 21 23
M  V30 54 1 36 38
M  V30 55 1 133 135
M  V30 56 1 133 150
M  V30 57 1 152 154
M  V30 58 1 152 156
M  V30 59 1 116 118
M  V30 60 1 116 120
M  V30 61 2 57 136
M  V30 62 1 49 57
M  V30 63 2 27 117
M  V30 64 1 19 27
M  V30 65 2 42 153
M  V30 66 1 34 42
M  V30 67 2 25 135
M  V30 68 2 55 154
M  V30 69 2 40 118
M  V30 70 2 49 51
M  V30 71 1 51 52
M  V30 72 2 19 21
M  V30 73 1 21 22
M  V30 74 2 34 36
M  V30 75 1 36 37
M  V30 76 1 48 49
M  V30 77 1 18 19
M  V30 78 1 33 34
M  V30 79 1 22 25
M  V30 80 1 25 28
M  V30 81 1 52 55
M  V30 82 1 55 58
M  V30 83 1 37 40
M  V30 84 1 40 43
M  V30 85 2 22 24
M  V30 86 2 52 54
M  V30 87 2 37 39
M  V30 88 1 48 50
M  V30 89 2 46 48
M  V30 90 1 18 20
M  V30 91 2 16 18
M  V30 92 1 33 35
M  V30 93 2 31 33
M  V30 94 1 46 54
M  V30 95 1 54 56
M  V30 96 1 16 24
M  V30 97 1 24 26
M  V30 98 1 31 39
M  V30 99 1 39 41
M  V30 100 1 46 47
M  V30 101 1 16 17
M  V30 102 1 31 32
M  V30 103 1 47 59
M  V30 104 2 47 100
M  V30 105 1 17 29
M  V30 106 2 17 64
M  V30 107 1 32 44
M  V30 108 2 32 82
M  V30 109 1 98 100
M  V30 110 1 62 64
M  V30 111 1 80 82
M  V30 112 1 101 104
M  V30 113 1 65 68
M  V30 114 1 83 86
M  V30 115 1 101 105
M  V30 116 1 65 69
M  V30 117 1 83 87
M  V30 118 1 98 101
M  V30 119 1 98 102
M  V30 120 1 97 98
M  V30 121 1 62 65
M  V30 122 1 62 66
M  V30 123 1 61 62
M  V30 124 1 80 83
M  V30 125 1 80 84
M  V30 126 1 79 80
M  V30 127 1 101 103
M  V30 128 1 65 67
M  V30 129 1 83 85
M  V30 130 1 2 14
M  V30 131 1 12 15
M  V30 132 1 10 13
M  V30 133 1 3 5
M  V30 134 1 3 4
M  V30 135 2 1 3
M  V30 136 2 4 6
M  V30 137 1 4 12
M  V30 138 1 1 9
M  V30 139 1 1 2
M  V30 140 1 6 7
M  V30 141 1 6 8
M  V30 142 2 7 9
M  V30 143 1 9 11
M  V30 144 1 7 10
M  V30 145 2 12 99
M  V30 146 2 2 63
M  V30 147 2 10 81
M  V30 148 1 97 114
M  V30 149 1 61 78
M  V30 150 1 79 96
M  V30 151 1 97 99
M  V30 152 1 61 63
M  V30 153 1 79 81
M  V30 154 1 97 109
M  V30 155 1 61 73
M  V30 156 1 79 91
M  V30 157 1 103 108
M  V30 158 1 103 107
M  V30 159 1 103 106
M  V30 160 1 67 72
M  V30 161 1 67 71
M  V30 162 1 67 70
M  V30 163 1 85 90
M  V30 164 1 85 89
M  V30 165 1 85 88
M  V30 166 1 106 111
M  V30 167 1 70 75
M  V30 168 1 106 109
M  V30 169 1 109 112
M  V30 170 1 109 113
M  V30 171 1 70 73
M  V30 172 1 73 76
M  V30 173 1 73 77
M  V30 174 1 88 93
M  V30 175 1 88 91
M  V30 176 1 91 94
M  V30 177 1 91 95
M  V30 178 1 106 110
M  V30 179 1 70 74
M  V30 180 1 88 92
M  V30 END BOND
M  V30 END CTAB
M  END

$$$$
