
     RDKit          3D

  0  0  0  0  0  0  0  0  0  0999 V3000
M  V30 BEGIN CTAB
M  V30 COUNTS 168 180 0 0 0
M  V30 BEGIN ATOM
M  V30 1 C -0.5649 -0.8739 4.2519 0
M  V30 2 C -2.0014 -1.0189 4.4406 0
M  V30 3 C 0.0522 0.3450 4.5063 0
M  V30 4 C 1.4329 0.4858 4.3666 0
M  V30 5 H -0.5184 1.2019 4.8300 0
M  V30 6 C 2.1911 -0.6052 3.9588 0
M  V30 7 C 1.5857 -1.8349 3.6997 0
M  V30 8 H 3.2620 -0.5296 3.8477 0
M  V30 9 C 0.2091 -1.9601 3.8433 0
M  V30 10 C 2.3876 -2.9868 3.3120 0
M  V30 11 H -0.2878 -2.8999 3.6565 0
M  V30 12 C 2.0816 1.7528 4.6730 0
M  V30 13 H 1.8236 -3.8724 2.9800 0
M  V30 14 H -2.5579 -0.0849 4.6146 0
M  V30 15 H 3.1440 1.8265 4.3932 0
M  V30 16 C -3.5982 -1.4654 0.1315 0
M  V30 17 C -3.7730 -2.3464 1.2774 0
M  V30 18 C -3.0872 -1.9658 -1.0602 0
M  V30 19 C -2.9514 -1.1419 -2.1775 0
M  V30 20 H -2.7988 -3.0019 -1.1515 0
M  V30 21 C -3.3230 0.1943 -2.0876 0
M  V30 22 C -3.8374 0.7108 -0.8983 0
M  V30 23 H -3.2360 0.8555 -2.9361 0
M  V30 24 C -3.9672 -0.1223 0.2066 0
M  V30 25 C -4.2634 2.1009 -0.8198 0
M  V30 26 H -4.3677 0.2461 1.1386 0
M  V30 27 C -2.4540 -1.6793 -3.4359 0
M  V30 28 H -4.5107 2.4696 0.1878 0
M  V30 29 H -3.3182 -3.3451 1.1864 0
M  V30 30 H -2.2316 -0.9376 -4.2186 0
M  V30 31 C 3.7529 -1.9358 -0.9717 0
M  V30 32 C 4.5530 -2.2878 0.1927 0
M  V30 33 C 4.0080 -0.7565 -1.6613 0
M  V30 34 C 3.2750 -0.4265 -2.8013 0
M  V30 35 H 4.7849 -0.0799 -1.3401 0
M  V30 36 C 2.2744 -1.2853 -3.2401 0
M  V30 37 C 2.0069 -2.4725 -2.5582 0
M  V30 38 H 1.6943 -1.0612 -4.1221 0
M  V30 39 C 2.7455 -2.7882 -1.4239 0
M  V30 40 C 0.9852 -3.3894 -3.0436 0
M  V30 41 H 2.5665 -3.7022 -0.8786 0
M  V30 42 C 3.5726 0.7898 -3.5445 0
M  V30 43 H 0.7296 -4.2217 -2.3696 0
M  V30 44 H 5.2180 -1.4966 0.5726 0
M  V30 45 H 2.8542 1.0552 -4.3356 0
M  V30 46 C 0.7202 4.5031 1.2238 0
M  V30 47 C 0.5903 4.6915 2.6618 0
M  V30 48 C -0.4023 4.5756 0.4077 0
M  V30 49 C -0.2862 4.4359 -0.9754 0
M  V30 50 H -1.3823 4.7551 0.8224 0
M  V30 51 C 0.9661 4.2120 -1.5347 0
M  V30 52 C 2.1018 4.1365 -0.7282 0
M  V30 53 H 1.0893 4.1060 -2.6016 0
M  V30 54 C 1.9708 4.2777 0.6482 0
M  V30 55 C 3.4174 3.9420 -1.3211 0
M  V30 56 H 2.8312 4.2308 1.2979 0
M  V30 57 C -1.4587 4.5532 -1.8308 0
M  V30 58 H 4.2363 3.7397 -0.6133 0
M  V30 59 H -0.4398 4.7096 3.0504 0
M  V30 60 H -1.3103 4.2787 -2.8867 0
M  V30 61 C -3.9726 -2.2516 4.6432 0
M  V30 62 C -4.5977 -2.8967 3.3897 0
M  V30 63 N -2.5629 -2.1475 4.4336 0
M  V30 64 N -4.4298 -1.9947 2.2941 0
M  V30 65 C -6.0947 -3.1257 3.6146 0
M  V30 66 H -4.0908 -3.8624 3.2109 0
M  V30 67 C -6.3362 -4.0036 4.8364 0
M  V30 68 H -6.5176 -3.5898 2.7211 0
M  V30 69 H -6.5751 -2.1547 3.7469 0
M  V30 70 C -5.7163 -3.3685 6.0764 0
M  V30 71 H -5.8905 -4.9873 4.6713 0
M  V30 72 H -7.4095 -4.1414 4.9823 0
M  V30 73 C -4.2247 -3.1396 5.8648 0
M  V30 74 H -5.8684 -4.0136 6.9441 0
M  V30 75 H -6.2060 -2.4130 6.2779 0
M  V30 76 H -3.7153 -4.0919 5.7087 0
M  V30 77 H -3.7832 -2.6632 6.7428 0
M  V30 78 H -4.4425 -1.2625 4.7917 0
M  V30 79 C 4.3981 -4.1329 3.0122 0
M  V30 80 C 5.3240 -3.7493 1.8401 0
M  V30 81 N 3.6460 -2.9755 3.3819 0
M  V30 82 N 4.5062 -3.4359 0.7109 0
M  V30 83 C 6.2263 -4.9332 1.4818 0
M  V30 84 H 5.9396 -2.8876 2.1561 0
M  V30 85 C 7.0518 -5.3753 2.6837 0
M  V30 86 H 6.8793 -4.6404 0.6567 0
M  V30 87 H 5.5958 -5.7536 1.1347 0
M  V30 88 C 6.1378 -5.7523 3.8447 0
M  V30 89 H 7.7116 -4.5607 2.9913 0
M  V30 90 H 7.6763 -6.2269 2.4062 0
M  V30 91 C 5.2374 -4.5794 4.2124 0
M  V30 92 H 6.7338 -6.0428 4.7122 0
M  V30 93 H 5.5219 -6.6079 3.5583 0
M  V30 94 H 5.8390 -3.7319 4.5455 0
M  V30 95 H 4.5656 -4.8547 5.0283 0
M  V30 96 H 3.7459 -4.9604 2.6787 0
M  V30 97 C 2.1448 3.9137 5.5523 0
M  V30 98 C 1.4246 5.0574 4.8099 0
M  V30 99 N 1.4689 2.6917 5.2491 0
M  V30 100 N 1.5948 4.8532 3.4059 0
M  V30 101 C 2.0513 6.4010 5.1922 0
M  V30 102 H 0.3593 5.0407 5.1035 0
M  V30 103 C 1.9869 6.6260 6.6978 0
M  V30 104 H 1.5237 7.1980 4.6639 0
M  V30 105 H 3.0890 6.4050 4.8541 0
M  V30 106 C 2.6963 5.4943 7.4337 0
M  V30 107 H 0.9422 6.6662 7.0151 0
M  V30 108 H 2.4504 7.5830 6.9454 0
M  V30 109 C 2.0778 4.1520 7.0633 0
M  V30 110 H 2.6246 5.6456 8.5126 0
M  V30 111 H 3.7549 5.4939 7.1639 0
M  V30 112 H 1.0309 4.1215 7.3701 0
M  V30 113 H 2.5996 3.3379 7.5711 0
M  V30 114 H 3.1983 3.8969 5.2189 0
M  V30 115 C -1.8450 -3.4106 -4.8775 0
M  V30 116 C -0.5335 -4.1826 -4.6283 0
M  V30 117 N -2.3165 -2.9185 -3.6217 0
M  V30 118 N 0.4516 -3.2510 -4.1772 0
M  V30 119 C -0.0492 -4.8190 -5.9339 0
M  V30 120 H -0.7342 -4.9679 -3.8771 0
M  V30 121 C -1.1073 -5.7490 -6.5147 0
M  V30 122 H 0.8744 -5.3675 -5.7362 0
M  V30 123 H 0.1805 -4.0203 -6.6413 0
M  V30 124 C -2.4057 -4.9876 -6.7591 0
M  V30 125 H -1.2934 -6.5688 -5.8172 0
M  V30 126 H -0.7432 -6.1794 -7.4499 0
M  V30 127 C -2.8993 -4.3532 -5.4647 0
M  V30 128 H -3.1689 -5.6635 -7.1501 0
M  V30 129 H -2.2340 -4.2074 -7.5043 0
M  V30 130 H -3.1195 -5.1257 -4.7259 0
M  V30 131 H -3.8166 -3.7877 -5.6420 0
M  V30 132 H -1.6325 -2.5919 -5.5888 0
M  V30 133 C -4.8091 4.1779 -1.7338 0
M  V30 134 C -3.6872 5.0930 -2.2651 0
M  V30 135 N -4.3686 2.8233 -1.8473 0
M  V30 136 N -2.5634 4.9715 -1.3911 0
M  V30 137 C -4.1592 6.5496 -2.2614 0
M  V30 138 H -3.4450 4.7772 -3.2961 0
M  V30 139 C -5.4201 6.7182 -3.1002 0
M  V30 140 H -3.3559 7.1803 -2.6482 0
M  V30 141 H -4.3505 6.8464 -1.2288 0
M  V30 142 C -6.5295 5.8119 -2.5777 0
M  V30 143 H -5.2023 6.4626 -4.1398 0
M  V30 144 H -5.7427 7.7610 -3.0711 0
M  V30 145 C -6.0718 4.3586 -2.5808 0
M  V30 146 H -7.4222 5.9162 -3.1976 0
M  V30 147 H -6.7908 6.1086 -1.5593 0
M  V30 148 H -5.8517 4.0345 -3.5995 0
M  V30 149 H -6.8563 3.7101 -2.1850 0
M  V30 150 H -5.0146 4.4590 -0.6850 0
M  V30 151 C 4.8746 2.6523 -4.0756 0
M  V30 152 C 4.9158 3.8526 -3.1082 0
M  V30 153 N 4.6044 1.4753 -3.3120 0
M  V30 154 N 3.6063 4.0299 -2.5642 0
M  V30 155 C 5.3090 5.1210 -3.8704 0
M  V30 156 H 5.6634 3.6364 -2.3236 0
M  V30 157 C 6.6580 4.9500 -4.5578 0
M  V30 158 H 5.3412 5.9571 -3.1685 0
M  V30 159 H 4.5336 5.3329 -4.6086 0
M  V30 160 C 6.6198 3.7618 -5.5127 0
M  V30 161 H 7.4319 4.7851 -3.8043 0
M  V30 162 H 6.9094 5.8617 -5.1034 0
M  V30 163 C 6.2331 2.4925 -4.7635 0
M  V30 164 H 7.5959 3.6267 -5.9828 0
M  V30 165 H 5.8900 3.9545 -6.3025 0
M  V30 166 H 6.9795 2.2621 -4.0013 0
M  V30 167 H 6.1820 1.6445 -5.4498 0
M  V30 168 H 4.0899 2.8450 -4.8295 0
M  V30 END ATOM
M  V30 BEGIN BOND
M  V30 1 1 139 143
M  V30 2 1 160 165
M  V30 3 1 124 129
M  V30 4 1 139 144
M  V30 5 1 160 164
M  V30 6 1 124 128
M  V30 7 1 142 146
M  V30 8 1 157 162
M  V30 9 1 121 126
M  V30 10 1 139 142
M  V30 11 1 137 139
M  V30 12 1 157 160
M  V30 13 1 160 163
M  V30 14 1 121 124
M  V30 15 1 124 127
M  V30 16 1 145 148
M  V30 17 1 155 159
M  V30 18 1 119 123
M  V30 19 1 137 140
M  V30 20 1 134 138
M  V30 21 1 142 145
M  V30 22 1 142 147
M  V30 23 1 151 168
M  V30 24 1 127 131
M  V30 25 1 163 167
M  V30 26 1 115 132
M  V30 27 1 155 157
M  V30 28 1 157 161
M  V30 29 1 119 121
M  V30 30 1 121 125
M  V30 31 1 134 137
M  V30 32 1 137 141
M  V30 33 1 145 149
M  V30 34 1 133 145
M  V30 35 1 151 163
M  V30 36 1 163 166
M  V30 37 1 115 127
M  V30 38 1 127 130
M  V30 39 1 155 158
M  V30 40 1 152 155
M  V30 41 1 119 122
M  V30 42 1 116 119
M  V30 43 1 57 60
M  V30 44 1 27 30
M  V30 45 1 42 45
M  V30 46 1 133 134
M  V30 47 1 134 136
M  V30 48 1 151 152
M  V30 49 1 151 153
M  V30 50 1 115 116
M  V30 51 1 115 117
M  V30 52 1 51 53
M  V30 53 1 21 23
M  V30 54 1 36 38
M  V30 55 1 133 135
M  V30 56 1 133 150
M  V30 57 1 152 154
M  V30 58 1 152 156
M  V30 59 1 116 118
M  V30 60 1 116 120
M  V30 61 2 57 136
M  V30 62 1 49 57
M  V30 63 2 27 117
M  V30 64 1 19 27
M  V30 65 2 42 153
M  V30 66 1 34 42
M  V30 67 2 25 135
M  V30 68 2 55 154
M  V30 69 2 40 118
M  V30 70 2 49 51
M  V30 71 1 51 52
M  V30 72 2 19 21
M  V30 73 1 21 22
M  V30 74 2 34 36
M  V30 75 1 36 37
M  V30 76 1 48 49
M  V30 77 1 18 19
M  V30 78 1 33 34
M  V30 79 1 22 25
M  V30 80 1 25 28
M  V30 81 1 52 55
M  V30 82 1 55 58
M  V30 83 1 37 40
M  V30 84 1 40 43
M  V30 85 2 22 24
M  V30 86 2 52 54
M  V30 87 2 37 39
M  V30 88 1 48 50
M  V30 89 2 46 48
M  V30 90 1 18 20
M  V30 91 2 16 18
M  V30 92 1 33 35
M  V30 93 2 31 33
M  V30 94 1 46 54
M  V30 95 1 54 56
M  V30 96 1 16 24
M  V30 97 1 24 26
M  V30 98 1 31 39
M  V30 99 1 39 41
M  V30 100 1 46 47
M  V30 101 1 16 17
M  V30 102 1 31 32
M  V30 103 1 47 59
M  V30 104 2 47 100
M  V30 105 1 17 29
M  V30 106 2 17 64
M  V30 107 1 32 44
M  V30 108 2 32 82
M  V30 109 1 98 100
M  V30 110 1 62 64
M  V30 111 1 80 82
M  V30 112 1 101 104
M  V30 113 1 65 68
M  V30 114 1 83 86
M  V30 115 1 101 105
M  V30 116 1 65 69
M  V30 117 1 83 87
M  V30 118 1 98 101
M  V30 119 1 98 102
M  V30 120 1 97 98
M  V30 121 1 62 65
M  V30 122 1 62 66
M  V30 123 1 61 62
M  V30 124 1 80 83
M  V30 125 1 80 84
M  V30 126 1 79 80
M  V30 127 1 101 103
M  V30 128 1 65 67
M  V30 129 1 83 85
M  V30 130 1 2 14
M  V30 131 1 12 15
M  V30 132 1 10 13
M  V30 133 1 3 5
M  V30 134 1 3 4
M  V30 135 2 1 3
M  V30 136 2 4 6
M  V30 137 1 4 12
M  V30 138 1 1 9
M  V30 139 1 1 2
M  V30 140 1 6 7
M  V30 141 1 6 8
M  V30 142 2 7 9
M  V30 143 1 9 11
M  V30 144 1 7 10
M  V30 145 2 12 99
M  V30 146 2 2 63
M  V30 147 2 10 81
M  V30 148 1 97 114
M  V30 149 1 61 78
M  V30 150 1 79 96
M  V30 151 1 97 99
M  V30 152 1 61 63
M  V30 153 1 79 81
M  V30 154 1 97 109
M  V30 155 1 61 73
M  V30 156 1 79 91
M  V30 157 1 103 108
M  V30 158 1 103 107
M  V30 159 1 103 106
M  V30 160 1 67 72
M  V30 161 1 67 71
M  V30 162 1 67 70
M  V30 163 1 85 90
M  V30 164 1 85 89
M  V30 165 1 85 88
M  V30 166 1 106 111
M  V30 167 1 70 75
M  V30 168 1 106 109
M  V30 169 1 109 112
M  V30 170 1 109 113
M  V30 171 1 70 73
M  V30 172 1 73 76
M  V30 173 1 73 77
M  V30 174 1 88 93
M  V30 175 1 88 91
M  V30 176 1 91 94
M  V30 177 1 91 95
M  V30 178 1 106 110
M  V30 179 1 70 74
M  V30 180 1 88 92
M  V30 END BOND
M  V30 END CTAB
M  END

$$$$
