
     RDKit          3D

  0  0  0  0  0  0  0  0  0  0999 V3000
M  V30 BEGIN CTAB
M  V30 COUNTS 168 180 0 0 0
M  V30 BEGIN ATOM
M  V30 1 C -0.3646 0.9412 -4.3697 0
M  V30 2 C 0.7355 1.8360 -4.7005 0
M  V30 3 C -1.5732 1.4589 -3.9195 0
M  V30 4 C -2.6468 0.6146 -3.6364 0
M  V30 5 H -1.7118 2.5216 -3.7930 0
M  V30 6 C -2.4961 -0.7573 -3.7989 0
M  V30 7 C -1.2890 -1.2914 -4.2500 0
M  V30 8 H -3.3101 -1.4357 -3.5943 0
M  V30 9 C -0.2280 -0.4379 -4.5280 0
M  V30 10 C -1.1468 -2.7255 -4.4580 0
M  V30 11 H 0.7163 -0.8202 -4.8846 0
M  V30 12 C -3.9245 1.1632 -3.2038 0
M  V30 13 H -0.1254 -3.0798 -4.6670 0
M  V30 14 H 0.6016 2.8883 -4.4055 0
M  V30 15 H -4.6676 0.4287 -2.8565 0
M  V30 16 C 3.8081 1.0236 -1.3513 0
M  V30 17 C 3.9748 0.9497 -2.7958 0
M  V30 18 C 4.1307 -0.0696 -0.5561 0
M  V30 19 C 4.0128 0.0011 0.8320 0
M  V30 20 H 4.4915 -0.9887 -0.9919 0
M  V30 21 C 3.5579 1.1762 1.4180 0
M  V30 22 C 3.2303 2.2817 0.6328 0
M  V30 23 H 3.4620 1.2643 2.4893 0
M  V30 24 C 3.3528 2.1966 -0.7489 0
M  V30 25 C 2.7924 3.5244 1.2527 0
M  V30 26 H 3.1132 3.0366 -1.3827 0
M  V30 27 C 4.3904 -1.1323 1.6643 0
M  V30 28 H 2.4075 4.2930 0.5645 0
M  V30 29 H 4.1890 -0.0512 -3.2016 0
M  V30 30 H 4.1243 -1.0535 2.7298 0
M  V30 31 C -1.1304 -4.4243 -0.1648 0
M  V30 32 C -1.9924 -4.7620 -1.2886 0
M  V30 33 C -1.6872 -4.0374 1.0484 0
M  V30 34 C -0.8740 -3.7492 2.1444 0
M  V30 35 H -2.7568 -3.9656 1.1731 0
M  V30 36 C 0.5062 -3.8421 2.0117 0
M  V30 37 C 1.0796 -4.2291 0.8003 0
M  V30 38 H 1.1617 -3.6318 2.8428 0
M  V30 39 C 0.2566 -4.5133 -0.2831 0
M  V30 40 C 2.5240 -4.3644 0.6763 0
M  V30 41 H 0.6699 -4.8214 -1.2313 0
M  V30 42 C -1.4626 -3.3837 3.4252 0
M  V30 43 H 2.9041 -4.5219 -0.3450 0
M  V30 44 H -3.0592 -4.5196 -1.1625 0
M  V30 45 H -0.7577 -3.0239 4.1907 0
M  V30 46 C -3.0401 2.6683 1.0702 0
M  V30 47 C -3.5811 3.3930 -0.0710 0
M  V30 48 C -1.9160 3.1490 1.7312 0
M  V30 49 C -1.4108 2.4858 2.8495 0
M  V30 50 H -1.4199 4.0499 1.4042 0
M  V30 51 C -2.0366 1.3278 3.2952 0
M  V30 52 C -3.1655 0.8331 2.6417 0
M  V30 53 H -1.6734 0.7956 4.1610 0
M  V30 54 C -3.6577 1.5047 1.5290 0
M  V30 55 C -3.8425 -0.3577 3.1355 0
M  V30 56 H -4.5329 1.1506 1.0061 0
M  V30 57 C -0.2576 3.0149 3.5638 0
M  V30 58 H -4.6258 -0.7694 2.4803 0
M  V30 59 H -2.9518 4.2076 -0.4619 0
M  V30 60 H 0.1712 2.3565 4.3351 0
M  V30 61 C 2.8112 2.3446 -5.6380 0
M  V30 62 C 4.0990 1.8633 -4.9393 0
M  V30 63 N 1.7610 1.4320 -5.3121 0
M  V30 64 N 3.9075 1.9738 -3.5275 0
M  V30 65 C 5.2758 2.7532 -5.3483 0
M  V30 66 H 4.2892 0.8197 -5.2496 0
M  V30 67 C 5.4633 2.7514 -6.8604 0
M  V30 68 H 6.1787 2.3926 -4.8509 0
M  V30 69 H 5.0802 3.7666 -4.9936 0
M  V30 70 C 4.1897 3.2244 -7.5529 0
M  V30 71 H 5.7044 1.7400 -7.1958 0
M  V30 72 H 6.2989 3.4018 -7.1269 0
M  V30 73 C 3.0121 2.3428 -7.1559 0
M  V30 74 H 4.3195 3.1960 -8.6367 0
M  V30 75 H 3.9834 4.2581 -7.2661 0
M  V30 76 H 3.1847 1.3147 -7.4787 0
M  V30 77 H 2.0943 2.6941 -7.6323 0
M  V30 78 H 2.5919 3.3693 -5.2871 0
M  V30 79 C -1.9619 -4.9030 -4.6586 0
M  V30 80 C -2.4289 -5.6587 -3.3980 0
M  V30 81 N -2.1380 -3.5037 -4.4289 0
M  V30 82 N -1.5463 -5.3232 -2.3253 0
M  V30 83 C -2.3574 -7.1687 -3.6411 0
M  V30 84 H -3.4710 -5.3596 -3.1843 0
M  V30 85 C -3.2054 -7.5701 -4.8417 0
M  V30 86 H -2.6992 -7.6859 -2.7419 0
M  V30 87 H -1.3139 -7.4412 -3.8080 0
M  V30 88 C -2.7467 -6.8217 -6.0886 0
M  V30 89 H -4.2533 -7.3345 -4.6420 0
M  V30 90 H -3.1278 -8.6476 -5.0012 0
M  V30 91 C -2.8173 -5.3170 -5.8590 0
M  V30 92 H -3.3739 -7.0922 -6.9403 0
M  V30 93 H -1.7186 -7.1058 -6.3245 0
M  V30 94 H -3.8478 -5.0124 -5.6682 0
M  V30 95 H -2.4671 -4.7789 -6.7425 0
M  V30 96 H -0.9032 -5.1616 -4.8422 0
M  V30 97 C -5.4426 2.8980 -2.8398 0
M  V30 98 C -5.2176 3.8702 -1.6643 0
M  V30 99 N -4.1693 2.3986 -3.2538 0
M  V30 100 N -4.7116 3.1210 -0.5576 0
M  V30 101 C -6.5473 4.5117 -1.2586 0
M  V30 102 H -4.5074 4.6501 -1.9942 0
M  V30 103 C -7.1830 5.2431 -2.4344 0
M  V30 104 H -6.3668 5.2020 -0.4318 0
M  V30 105 H -7.2130 3.7252 -0.8989 0
M  V30 106 C -7.4037 4.2835 -3.5989 0
M  V30 107 H -6.5276 6.0567 -2.7540 0
M  V30 108 H -8.1339 5.6802 -2.1232 0
M  V30 109 C -6.0854 3.6419 -4.0135 0
M  V30 110 H -7.8345 4.8174 -4.4483 0
M  V30 111 H -8.1086 3.5049 -3.2985 0
M  V30 112 H -5.3869 4.4054 -4.3606 0
M  V30 113 H -6.2447 2.9365 -4.8321 0
M  V30 114 H -6.1110 2.0887 -2.4938 0
M  V30 115 C 5.3814 -3.2104 2.0465 0
M  V30 116 C 4.6954 -4.4884 1.5229 0
M  V30 117 N 5.0089 -2.1253 1.1948 0
M  V30 118 N 3.2839 -4.3319 1.6815 0
M  V30 119 C 5.1528 -5.6972 2.3437 0
M  V30 120 H 4.9798 -4.6219 0.4634 0
M  V30 121 C 6.6678 -5.8519 2.2922 0
M  V30 122 H 4.6639 -6.5924 1.9536 0
M  V30 123 H 4.8227 -5.5576 3.3746 0
M  V30 124 C 7.3477 -4.5878 2.8070 0
M  V30 125 H 6.9795 -6.0374 1.2617 0
M  V30 126 H 6.9690 -6.7116 2.8943 0
M  V30 127 C 6.9024 -3.3784 1.9940 0
M  V30 128 H 8.4326 -4.6928 2.7432 0
M  V30 129 H 7.0856 -4.4369 3.8568 0
M  V30 130 H 7.1998 -3.4951 0.9505 0
M  V30 131 H 7.3700 -2.4683 2.3760 0
M  V30 132 H 5.0553 -3.0476 3.0898 0
M  V30 133 C 2.4568 4.9542 3.0665 0
M  V30 134 C 1.3193 4.6605 4.0656 0
M  V30 135 N 2.8780 3.7138 2.4960 0
M  V30 136 N 0.1984 4.1665 3.3301 0
M  V30 137 C 0.9096 5.9510 4.7807 0
M  V30 138 H 1.6889 3.9227 4.8006 0
M  V30 139 C 2.0968 6.5778 5.5013 0
M  V30 140 H 0.1103 5.7220 5.4888 0
M  V30 141 H 0.5105 6.6439 4.0377 0
M  V30 142 C 3.2236 6.8662 4.5151 0
M  V30 143 H 2.4566 5.8934 6.2731 0
M  V30 144 H 1.7819 7.5013 5.9916 0
M  V30 145 C 3.6422 5.5873 3.8004 0
M  V30 146 H 4.0820 7.2904 5.0398 0
M  V30 147 H 2.8833 7.5990 3.7798 0
M  V30 148 H 4.0285 4.8625 4.5192 0
M  V30 149 H 4.4330 5.7955 3.0765 0
M  V30 150 H 2.0707 5.6513 2.3009 0
M  V30 151 C -3.2369 -3.1525 4.9234 0
M  V30 152 C -4.2649 -2.0218 4.7164 0
M  V30 153 N -2.6977 -3.5018 3.6471 0
M  V30 154 N -3.5652 -0.8640 4.2561 0
M  V30 155 C -4.9467 -1.6895 6.0465 0
M  V30 156 H -5.0157 -2.3694 3.9837 0
M  V30 157 C -5.6260 -2.9198 6.6353 0
M  V30 158 H -5.6759 -0.8941 5.8786 0
M  V30 159 H -4.1900 -1.3104 6.7354 0
M  V30 160 C -4.6113 -4.0398 6.8380 0
M  V30 161 H -6.4120 -3.2607 5.9574 0
M  V30 162 H -6.0931 -2.6599 7.5875 0
M  V30 163 C -3.9291 -4.3815 5.5190 0
M  V30 164 H -5.1071 -4.9279 7.2349 0
M  V30 165 H -3.8598 -3.7214 7.5642 0
M  V30 166 H -4.6630 -4.7460 4.7980 0
M  V30 167 H -3.1851 -5.1673 5.6661 0
M  V30 168 H -2.4571 -2.7860 5.6153 0
M  V30 END ATOM
M  V30 BEGIN BOND
M  V30 1 1 139 143
M  V30 2 1 160 165
M  V30 3 1 124 129
M  V30 4 1 139 144
M  V30 5 1 160 164
M  V30 6 1 124 128
M  V30 7 1 142 146
M  V30 8 1 157 162
M  V30 9 1 121 126
M  V30 10 1 139 142
M  V30 11 1 137 139
M  V30 12 1 157 160
M  V30 13 1 160 163
M  V30 14 1 121 124
M  V30 15 1 124 127
M  V30 16 1 145 148
M  V30 17 1 155 159
M  V30 18 1 119 123
M  V30 19 1 137 140
M  V30 20 1 134 138
M  V30 21 1 142 145
M  V30 22 1 142 147
M  V30 23 1 151 168
M  V30 24 1 127 131
M  V30 25 1 163 167
M  V30 26 1 115 132
M  V30 27 1 155 157
M  V30 28 1 157 161
M  V30 29 1 119 121
M  V30 30 1 121 125
M  V30 31 1 134 137
M  V30 32 1 137 141
M  V30 33 1 145 149
M  V30 34 1 133 145
M  V30 35 1 151 163
M  V30 36 1 163 166
M  V30 37 1 115 127
M  V30 38 1 127 130
M  V30 39 1 155 158
M  V30 40 1 152 155
M  V30 41 1 119 122
M  V30 42 1 116 119
M  V30 43 1 57 60
M  V30 44 1 27 30
M  V30 45 1 42 45
M  V30 46 1 133 134
M  V30 47 1 134 136
M  V30 48 1 151 152
M  V30 49 1 151 153
M  V30 50 1 115 116
M  V30 51 1 115 117
M  V30 52 1 51 53
M  V30 53 1 21 23
M  V30 54 1 36 38
M  V30 55 1 133 135
M  V30 56 1 133 150
M  V30 57 1 152 154
M  V30 58 1 152 156
M  V30 59 1 116 118
M  V30 60 1 116 120
M  V30 61 2 57 136
M  V30 62 1 49 57
M  V30 63 2 27 117
M  V30 64 1 19 27
M  V30 65 2 42 153
M  V30 66 1 34 42
M  V30 67 2 25 135
M  V30 68 2 55 154
M  V30 69 2 40 118
M  V30 70 2 49 51
M  V30 71 1 51 52
M  V30 72 2 19 21
M  V30 73 1 21 22
M  V30 74 2 34 36
M  V30 75 1 36 37
M  V30 76 1 48 49
M  V30 77 1 18 19
M  V30 78 1 33 34
M  V30 79 1 22 25
M  V30 80 1 25 28
M  V30 81 1 52 55
M  V30 82 1 55 58
M  V30 83 1 37 40
M  V30 84 1 40 43
M  V30 85 2 22 24
M  V30 86 2 52 54
M  V30 87 2 37 39
M  V30 88 1 48 50
M  V30 89 2 46 48
M  V30 90 1 18 20
M  V30 91 2 16 18
M  V30 92 1 33 35
M  V30 93 2 31 33
M  V30 94 1 46 54
M  V30 95 1 54 56
M  V30 96 1 16 24
M  V30 97 1 24 26
M  V30 98 1 31 39
M  V30 99 1 39 41
M  V30 100 1 46 47
M  V30 101 1 16 17
M  V30 102 1 31 32
M  V30 103 1 47 59
M  V30 104 2 47 100
M  V30 105 1 17 29
M  V30 106 2 17 64
M  V30 107 1 32 44
M  V30 108 2 32 82
M  V30 109 1 98 100
M  V30 110 1 62 64
M  V30 111 1 80 82
M  V30 112 1 101 104
M  V30 113 1 65 68
M  V30 114 1 83 86
M  V30 115 1 101 105
M  V30 116 1 65 69
M  V30 117 1 83 87
M  V30 118 1 98 101
M  V30 119 1 98 102
M  V30 120 1 97 98
M  V30 121 1 62 65
M  V30 122 1 62 66
M  V30 123 1 61 62
M  V30 124 1 80 83
M  V30 125 1 80 84
M  V30 126 1 79 80
M  V30 127 1 101 103
M  V30 128 1 65 67
M  V30 129 1 83 85
M  V30 130 1 2 14
M  V30 131 1 12 15
M  V30 132 1 10 13
M  V30 133 1 3 5
M  V30 134 1 3 4
M  V30 135 2 1 3
M  V30 136 2 4 6
M  V30 137 1 4 12
M  V30 138 1 1 9
M  V30 139 1 1 2
M  V30 140 1 6 7
M  V30 141 1 6 8
M  V30 142 2 7 9
M  V30 143 1 9 11
M  V30 144 1 7 10
M  V30 145 2 12 99
M  V30 146 2 2 63
M  V30 147 2 10 81
M  V30 148 1 97 114
M  V30 149 1 61 78
M  V30 150 1 79 96
M  V30 151 1 97 99
M  V30 152 1 61 63
M  V30 153 1 79 81
M  V30 154 1 97 109
M  V30 155 1 61 73
M  V30 156 1 79 91
M  V30 157 1 103 108
M  V30 158 1 103 107
M  V30 159 1 103 106
M  V30 160 1 67 72
M  V30 161 1 67 71
M  V30 162 1 67 70
M  V30 163 1 85 90
M  V30 164 1 85 89
M  V30 165 1 85 88
M  V30 166 1 106 111
M  V30 167 1 70 75
M  V30 168 1 106 109
M  V30 169 1 109 112
M  V30 170 1 109 113
M  V30 171 1 70 73
M  V30 172 1 73 76
M  V30 173 1 73 77
M  V30 174 1 88 93
M  V30 175 1 88 91
M  V30 176 1 91 94
M  V30 177 1 91 95
M  V30 178 1 106 110
M  V30 179 1 70 74
M  V30 180 1 88 92
M  V30 END BOND
M  V30 END CTAB
M  END

$$$$
