
     RDKit          3D

  0  0  0  0  0  0  0  0  0  0999 V3000
M  V30 BEGIN CTAB
M  V30 COUNTS 168 180 0 0 0
M  V30 BEGIN ATOM
M  V30 1 C -2.0283 1.9718 -3.2474 0
M  V30 2 C -1.0643 2.5822 -4.1519 0
M  V30 3 C -2.5408 2.6994 -2.1800 0
M  V30 4 C -3.4937 2.1386 -1.3296 0
M  V30 5 H -2.2249 3.7145 -1.9946 0
M  V30 6 C -3.9227 0.8357 -1.5520 0
M  V30 7 C -3.4173 0.0931 -2.6193 0
M  V30 8 H -4.6635 0.3763 -0.9155 0
M  V30 9 C -2.4684 0.6650 -3.4582 0
M  V30 10 C -3.8986 -1.2574 -2.8739 0
M  V30 11 H -2.0632 0.1183 -4.2961 0
M  V30 12 C -4.0586 2.9175 -0.2366 0
M  V30 13 H -3.3442 -1.8271 -3.6360 0
M  V30 14 H -0.6563 3.5536 -3.8319 0
M  V30 15 H -4.6857 2.3584 0.4751 0
M  V30 16 C 2.8553 0.3357 -3.1990 0
M  V30 17 C 2.1718 0.5012 -4.4739 0
M  V30 18 C 3.1732 -0.9367 -2.7391 0
M  V30 19 C 3.8626 -1.1073 -1.5385 0
M  V30 20 H 2.9076 -1.8164 -3.3050 0
M  V30 21 C 4.2228 0.0102 -0.7950 0
M  V30 22 C 3.9106 1.2935 -1.2439 0
M  V30 23 H 4.7622 -0.0887 0.1345 0
M  V30 24 C 3.2236 1.4481 -2.4420 0
M  V30 25 C 4.3250 2.4636 -0.4825 0
M  V30 26 H 2.9733 2.4280 -2.8188 0
M  V30 27 C 4.2296 -2.4397 -1.0801 0
M  V30 28 H 3.9095 3.4259 -0.8198 0
M  V30 29 H 1.7824 -0.4219 -4.9307 0
M  V30 30 H 4.6317 -2.5001 -0.0569 0
M  V30 31 C -2.1114 -3.6966 0.6152 0
M  V30 32 C -3.4996 -3.5639 0.1966 0
M  V30 33 C -1.7500 -3.4164 1.9277 0
M  V30 34 C -0.4309 -3.5771 2.3519 0
M  V30 35 H -2.4813 -3.0837 2.6483 0
M  V30 36 C 0.5280 -4.0121 1.4450 0
M  V30 37 C 0.1803 -4.2972 0.1245 0
M  V30 38 H 1.5554 -4.1523 1.7442 0
M  V30 39 C -1.1381 -4.1325 -0.2838 0
M  V30 40 C 1.1793 -4.7913 -0.8126 0
M  V30 41 H -1.4393 -4.3509 -1.2969 0
M  V30 42 C -0.0643 -3.3217 3.7377 0
M  V30 43 H 0.8628 -4.8444 -1.8657 0
M  V30 44 H -4.1712 -3.0713 0.9171 0
M  V30 45 H 1.0151 -3.3215 3.9551 0
M  V30 46 C -0.5479 3.2687 2.7408 0
M  V30 47 C -1.3450 4.3197 2.1244 0
M  V30 48 C 0.8374 3.2899 2.6307 0
M  V30 49 C 1.6149 2.3109 3.2494 0
M  V30 50 H 1.3408 4.0687 2.0787 0
M  V30 51 C 0.9910 1.3017 3.9727 0
M  V30 52 C -0.3986 1.2672 4.0918 0
M  V30 53 H 1.5652 0.5337 4.4679 0
M  V30 54 C -1.1603 2.2494 3.4702 0
M  V30 55 C -1.0467 0.2315 4.8840 0
M  V30 56 H -2.2367 2.2536 3.5493 0
M  V30 57 C 3.0678 2.3595 3.1659 0
M  V30 58 H -2.1437 0.1822 4.8018 0
M  V30 59 H -0.8027 4.9936 1.4431 0
M  V30 60 H 3.5991 1.4731 3.5458 0
M  V30 61 C 0.1915 2.6824 -6.1164 0
M  V30 62 C 1.4032 1.7448 -6.2924 0
M  V30 63 N -0.7428 2.0426 -5.2448 0
M  V30 64 N 2.0620 1.6271 -5.0298 0
M  V30 65 C 2.3821 2.3452 -7.3050 0
M  V30 66 H 1.0332 0.7695 -6.6575 0
M  V30 67 C 1.7017 2.5861 -8.6470 0
M  V30 68 H 3.2280 1.6645 -7.4224 0
M  V30 69 H 2.7620 3.2849 -6.9006 0
M  V30 70 C 0.5015 3.5108 -8.4742 0
M  V30 71 H 1.3679 1.6321 -9.0619 0
M  V30 72 H 2.4159 3.0251 -9.3464 0
M  V30 73 C -0.4817 2.9209 -7.4707 0
M  V30 74 H 0.0013 3.6592 -9.4334 0
M  V30 75 H 0.8430 4.4858 -8.1188 0
M  V30 76 H -0.8669 1.9673 -7.8359 0
M  V30 77 H -1.3308 3.5927 -7.3278 0
M  V30 78 H 0.5550 3.6400 -5.7014 0
M  V30 79 C -5.3597 -3.0515 -2.5703 0
M  V30 80 C -5.2835 -3.8823 -1.2732 0
M  V30 81 N -4.9044 -1.7289 -2.2783 0
M  V30 82 N -3.9081 -4.0127 -0.9082 0
M  V30 83 C -5.8635 -5.2785 -1.5157 0
M  V30 84 H -5.8695 -3.3600 -0.4955 0
M  V30 85 C -7.3039 -5.1949 -2.0053 0
M  V30 86 H -5.8085 -5.8482 -0.5856 0
M  V30 87 H -5.2421 -5.7852 -2.2560 0
M  V30 88 C -7.3814 -4.3712 -3.2863 0
M  V30 89 H -7.9232 -4.7280 -1.2358 0
M  V30 90 H -7.6897 -6.2010 -2.1824 0
M  V30 91 C -6.8100 -2.9778 -3.0554 0
M  V30 92 H -8.4184 -4.2915 -3.6188 0
M  V30 93 H -6.8134 -4.8714 -4.0740 0
M  V30 94 H -7.3977 -2.4489 -2.3030 0
M  V30 95 H -6.8429 -2.3937 -3.9776 0
M  V30 96 H -4.7310 -3.5460 -3.3329 0
M  V30 97 C -4.4513 4.8933 0.9418 0
M  V30 98 C -3.3139 5.5213 1.7723 0
M  V30 99 N -3.8631 4.1584 -0.1334 0
M  V30 100 N -2.5707 4.4633 2.3809 0
M  V30 101 C -3.9027 6.4071 2.8737 0
M  V30 102 H -2.6877 6.1287 1.0939 0
M  V30 103 C -4.7894 7.4967 2.2837 0
M  V30 104 H -3.0835 6.8488 3.4450 0
M  V30 105 H -4.4807 5.7756 3.5507 0
M  V30 106 C -5.9131 6.8774 1.4597 0
M  V30 107 H -4.1884 8.1487 1.6454 0
M  V30 108 H -5.2061 8.1057 3.0885 0
M  V30 109 C -5.3381 5.9963 0.3576 0
M  V30 110 H -6.5299 7.6620 1.0170 0
M  V30 111 H -6.5510 6.2755 2.1110 0
M  V30 112 H -4.7357 6.5947 -0.3281 0
M  V30 113 H -6.1415 5.5329 -0.2193 0
M  V30 114 H -5.0465 4.2438 1.6091 0
M  V30 115 C 4.5090 -4.7414 -1.3456 0
M  V30 116 C 3.2705 -5.6596 -1.3783 0
M  V30 117 N 4.1193 -3.4522 -1.8228 0
M  V30 118 N 2.3227 -5.1611 -0.4321 0
M  V30 119 C 3.6676 -7.0823 -0.9757 0
M  V30 120 H 2.8674 -5.6568 -2.4073 0
M  V30 121 C 4.7539 -7.6279 -1.8944 0
M  V30 122 H 2.7808 -7.7187 -1.0128 0
M  V30 123 H 4.0218 -7.0614 0.0564 0
M  V30 124 C 5.9784 -6.7195 -1.8653 0
M  V30 125 H 4.3705 -7.6872 -2.9157 0
M  V30 126 H 5.0278 -8.6368 -1.5792 0
M  V30 127 C 5.5951 -5.3009 -2.2686 0
M  V30 128 H 6.7435 -7.0995 -2.5452 0
M  V30 129 H 6.3991 -6.7099 -0.8571 0
M  V30 130 H 5.2163 -5.2890 -3.2921 0
M  V30 131 H 6.4659 -4.6432 -2.2257 0
M  V30 132 H 4.8808 -4.7021 -0.3056 0
M  V30 133 C 5.5311 3.5508 1.1938 0
M  V30 134 C 5.1024 3.3877 2.6663 0
M  V30 135 N 5.1315 2.3778 0.4824 0
M  V30 136 N 3.6746 3.3676 2.7138 0
M  V30 137 C 5.6063 4.5767 3.4890 0
M  V30 138 H 5.5419 2.4494 3.0506 0
M  V30 139 C 7.1213 4.7070 3.3912 0
M  V30 140 H 5.3009 4.4394 4.5285 0
M  V30 141 H 5.1248 5.4821 3.1151 0
M  V30 142 C 7.5468 4.8656 1.9355 0
M  V30 143 H 7.5910 3.8146 3.8113 0
M  V30 144 H 7.4534 5.5679 3.9750 0
M  V30 145 C 7.0539 3.6850 1.1079 0
M  V30 146 H 8.6346 4.9317 1.8677 0
M  V30 147 H 7.1281 5.7912 1.5340 0
M  V30 148 H 7.5018 2.7576 1.4694 0
M  V30 149 H 7.3373 3.8078 0.0604 0
M  V30 150 H 5.0487 4.4611 0.7940 0
M  V30 151 C -0.5363 -2.9146 5.9867 0
M  V30 152 C -1.0640 -1.5302 6.4147 0
M  V30 153 N -0.9331 -3.1421 4.6330 0
M  V30 154 N -0.3911 -0.5383 5.6366 0
M  V30 155 C -0.7532 -1.2904 7.8947 0
M  V30 156 H -2.1567 -1.5128 6.2506 0
M  V30 157 C -1.3644 -2.3811 8.7656 0
M  V30 158 H -1.1412 -0.3106 8.1810 0
M  V30 159 H 0.3308 -1.2711 8.0196 0
M  V30 160 C -0.8458 -3.7510 8.3417 0
M  V30 161 H -2.4522 -2.3586 8.6666 0
M  V30 162 H -1.1185 -2.1945 9.8129 0
M  V30 163 C -1.1534 -4.0019 6.8706 0
M  V30 164 H -1.3066 -4.5314 8.9506 0
M  V30 165 H 0.2343 -3.7947 8.5000 0
M  V30 166 H -2.2324 -4.0073 6.7063 0
M  V30 167 H -0.7620 -4.9725 6.5587 0
M  V30 168 H 0.5629 -2.9139 6.1006 0
M  V30 END ATOM
M  V30 BEGIN BOND
M  V30 1 1 139 143
M  V30 2 1 160 165
M  V30 3 1 124 129
M  V30 4 1 139 144
M  V30 5 1 160 164
M  V30 6 1 124 128
M  V30 7 1 142 146
M  V30 8 1 157 162
M  V30 9 1 121 126
M  V30 10 1 139 142
M  V30 11 1 137 139
M  V30 12 1 157 160
M  V30 13 1 160 163
M  V30 14 1 121 124
M  V30 15 1 124 127
M  V30 16 1 145 148
M  V30 17 1 155 159
M  V30 18 1 119 123
M  V30 19 1 137 140
M  V30 20 1 134 138
M  V30 21 1 142 145
M  V30 22 1 142 147
M  V30 23 1 151 168
M  V30 24 1 127 131
M  V30 25 1 163 167
M  V30 26 1 115 132
M  V30 27 1 155 157
M  V30 28 1 157 161
M  V30 29 1 119 121
M  V30 30 1 121 125
M  V30 31 1 134 137
M  V30 32 1 137 141
M  V30 33 1 145 149
M  V30 34 1 133 145
M  V30 35 1 151 163
M  V30 36 1 163 166
M  V30 37 1 115 127
M  V30 38 1 127 130
M  V30 39 1 155 158
M  V30 40 1 152 155
M  V30 41 1 119 122
M  V30 42 1 116 119
M  V30 43 1 57 60
M  V30 44 1 27 30
M  V30 45 1 42 45
M  V30 46 1 133 134
M  V30 47 1 134 136
M  V30 48 1 151 152
M  V30 49 1 151 153
M  V30 50 1 115 116
M  V30 51 1 115 117
M  V30 52 1 51 53
M  V30 53 1 21 23
M  V30 54 1 36 38
M  V30 55 1 133 135
M  V30 56 1 133 150
M  V30 57 1 152 154
M  V30 58 1 152 156
M  V30 59 1 116 118
M  V30 60 1 116 120
M  V30 61 2 57 136
M  V30 62 1 49 57
M  V30 63 2 27 117
M  V30 64 1 19 27
M  V30 65 2 42 153
M  V30 66 1 34 42
M  V30 67 2 25 135
M  V30 68 2 55 154
M  V30 69 2 40 118
M  V30 70 2 49 51
M  V30 71 1 51 52
M  V30 72 2 19 21
M  V30 73 1 21 22
M  V30 74 2 34 36
M  V30 75 1 36 37
M  V30 76 1 48 49
M  V30 77 1 18 19
M  V30 78 1 33 34
M  V30 79 1 22 25
M  V30 80 1 25 28
M  V30 81 1 52 55
M  V30 82 1 55 58
M  V30 83 1 37 40
M  V30 84 1 40 43
M  V30 85 2 22 24
M  V30 86 2 52 54
M  V30 87 2 37 39
M  V30 88 1 48 50
M  V30 89 2 46 48
M  V30 90 1 18 20
M  V30 91 2 16 18
M  V30 92 1 33 35
M  V30 93 2 31 33
M  V30 94 1 46 54
M  V30 95 1 54 56
M  V30 96 1 16 24
M  V30 97 1 24 26
M  V30 98 1 31 39
M  V30 99 1 39 41
M  V30 100 1 46 47
M  V30 101 1 16 17
M  V30 102 1 31 32
M  V30 103 1 47 59
M  V30 104 2 47 100
M  V30 105 1 17 29
M  V30 106 2 17 64
M  V30 107 1 32 44
M  V30 108 2 32 82
M  V30 109 1 98 100
M  V30 110 1 62 64
M  V30 111 1 80 82
M  V30 112 1 101 104
M  V30 113 1 65 68
M  V30 114 1 83 86
M  V30 115 1 101 105
M  V30 116 1 65 69
M  V30 117 1 83 87
M  V30 118 1 98 101
M  V30 119 1 98 102
M  V30 120 1 97 98
M  V30 121 1 62 65
M  V30 122 1 62 66
M  V30 123 1 61 62
M  V30 124 1 80 83
M  V30 125 1 80 84
M  V30 126 1 79 80
M  V30 127 1 101 103
M  V30 128 1 65 67
M  V30 129 1 83 85
M  V30 130 1 2 14
M  V30 131 1 12 15
M  V30 132 1 10 13
M  V30 133 1 3 5
M  V30 134 1 3 4
M  V30 135 2 1 3
M  V30 136 2 4 6
M  V30 137 1 4 12
M  V30 138 1 1 9
M  V30 139 1 1 2
M  V30 140 1 6 7
M  V30 141 1 6 8
M  V30 142 2 7 9
M  V30 143 1 9 11
M  V30 144 1 7 10
M  V30 145 2 12 99
M  V30 146 2 2 63
M  V30 147 2 10 81
M  V30 148 1 97 114
M  V30 149 1 61 78
M  V30 150 1 79 96
M  V30 151 1 97 99
M  V30 152 1 61 63
M  V30 153 1 79 81
M  V30 154 1 97 109
M  V30 155 1 61 73
M  V30 156 1 79 91
M  V30 157 1 103 108
M  V30 158 1 103 107
M  V30 159 1 103 106
M  V30 160 1 67 72
M  V30 161 1 67 71
M  V30 162 1 67 70
M  V30 163 1 85 90
M  V30 164 1 85 89
M  V30 165 1 85 88
M  V30 166 1 106 111
M  V30 167 1 70 75
M  V30 168 1 106 109
M  V30 169 1 109 112
M  V30 170 1 109 113
M  V30 171 1 70 73
M  V30 172 1 73 76
M  V30 173 1 73 77
M  V30 174 1 88 93
M  V30 175 1 88 91
M  V30 176 1 91 94
M  V30 177 1 91 95
M  V30 178 1 106 110
M  V30 179 1 70 74
M  V30 180 1 88 92
M  V30 END BOND
M  V30 END CTAB
M  END

$$$$
