
     RDKit          3D

  0  0  0  0  0  0  0  0  0  0999 V3000
M  V30 BEGIN CTAB
M  V30 COUNTS 168 180 0 0 0
M  V30 BEGIN ATOM
M  V30 1 C -0.4702 -3.8574 1.4473 0
M  V30 2 C -1.4404 -4.5047 0.5757 0
M  V30 3 C -0.9014 -3.1051 2.5334 0
M  V30 4 C 0.0188 -2.5122 3.3979 0
M  V30 5 H -1.9528 -2.9752 2.7393 0
M  V30 6 C 1.3785 -2.6714 3.1590 0
M  V30 7 C 1.8263 -3.4236 2.0729 0
M  V30 8 H 2.1149 -2.2305 3.8133 0
M  V30 9 C 0.8978 -4.0083 1.2201 0
M  V30 10 C 3.2512 -3.6224 1.8483 0
M  V30 11 H 1.2129 -4.6014 0.3751 0
M  V30 12 C -0.4360 -1.7586 4.5579 0
M  V30 13 H 3.5234 -4.0958 0.8921 0
M  V30 14 H -2.4911 -4.2140 0.7300 0
M  V30 15 H 0.3420 -1.1988 5.0998 0
M  V30 16 C -1.0922 -2.1150 -3.3595 0
M  V30 17 C -0.9542 -3.5466 -3.1327 0
M  V30 18 C -0.0777 -1.4096 -3.9957 0
M  V30 19 C -0.2138 -0.0457 -4.2543 0
M  V30 20 H 0.8279 -1.9021 -4.3153 0
M  V30 21 C -1.3739 0.6100 -3.8597 0
M  V30 22 C -2.4007 -0.0848 -3.2201 0
M  V30 23 H -1.5118 1.6631 -4.0511 0
M  V30 24 C -2.2510 -1.4435 -2.9693 0
M  V30 25 C -3.6313 0.5968 -2.8443 0
M  V30 26 H -3.0300 -2.0097 -2.4822 0
M  V30 27 C 0.8337 0.6813 -4.9573 0
M  V30 28 H -4.3233 0.0206 -2.2105 0
M  V30 29 H 0.0443 -3.9674 -3.3284 0
M  V30 30 H 0.7205 1.7762 -4.9852 0
M  V30 31 C 4.7030 0.5448 0.4899 0
M  V30 32 C 5.1778 -0.2866 1.5869 0
M  V30 33 C 4.3013 1.8533 0.7311 0
M  V30 34 C 3.8815 2.6729 -0.3165 0
M  V30 35 H 4.3189 2.2670 1.7278 0
M  V30 36 C 3.8575 2.1661 -1.6103 0
M  V30 37 C 4.2576 0.8548 -1.8678 0
M  V30 38 H 3.5439 2.7772 -2.4427 0
M  V30 39 C 4.6736 0.0499 -0.8139 0
M  V30 40 C 4.2695 0.3398 -3.2297 0
M  V30 41 H 4.9951 -0.9666 -0.9820 0
M  V30 42 C 3.5004 4.0557 -0.0656 0
M  V30 43 H 4.4482 -0.7419 -3.3308 0
M  V30 44 H 5.0254 0.1229 2.5977 0
M  V30 45 H 3.0373 4.5858 -0.9122 0
M  V30 46 C -2.2471 2.0595 2.6990 0
M  V30 47 C -2.8565 1.0927 3.6012 0
M  V30 48 C -2.8623 2.3698 1.4921 0
M  V30 49 C -2.3095 3.3229 0.6366 0
M  V30 50 H -3.7847 1.8931 1.1978 0
M  V30 51 C -1.1264 3.9568 0.9964 0
M  V30 52 C -0.4973 3.6555 2.2046 0
M  V30 53 H -0.6774 4.7030 0.3590 0
M  V30 54 C -1.0598 2.7039 3.0469 0
M  V30 55 C 0.7204 4.3507 2.5970 0
M  V30 56 H -0.6005 2.4538 3.9910 0
M  V30 57 C -2.9784 3.6750 -0.6080 0
M  V30 58 H 1.2361 3.9496 3.4834 0
M  V30 59 H -3.7015 0.5201 3.1883 0
M  V30 60 H -2.4045 4.3158 -1.2952 0
M  V30 61 C -2.0807 -5.9939 -1.1031 0
M  V30 62 C -1.7559 -5.6656 -2.5745 0
M  V30 63 N -1.0969 -5.3646 -0.2797 0
M  V30 64 N -1.9264 -4.2596 -2.7650 0
M  V30 65 C -2.7239 -6.4091 -3.4988 0
M  V30 66 H -0.7181 -5.9869 -2.7776 0
M  V30 67 C -2.6557 -7.9134 -3.2661 0
M  V30 68 H -2.4736 -6.1711 -4.5348 0
M  V30 69 H -3.7336 -6.0428 -3.3056 0
M  V30 70 C -2.9738 -8.2396 -1.8109 0
M  V30 71 H -1.6530 -8.2738 -3.5078 0
M  V30 72 H -3.3627 -8.4189 -3.9270 0
M  V30 73 C -2.0134 -7.5074 -0.8817 0
M  V30 74 H -2.8976 -9.3157 -1.6424 0
M  V30 75 H -3.9991 -7.9360 -1.5869 0
M  V30 76 H -0.9888 -7.8363 -1.0631 0
M  V30 77 H -2.2542 -7.7211 0.1619 0
M  V30 78 H -3.0993 -5.6251 -0.8852 0
M  V30 79 C 5.5007 -3.5282 2.4622 0
M  V30 80 C 6.2247 -2.1667 2.4887 0
M  V30 81 N 4.1123 -3.2982 2.7099 0
M  V30 82 N 5.7530 -1.3901 1.3859 0
M  V30 83 C 7.7333 -2.3774 2.3336 0
M  V30 84 H 6.0090 -1.6815 3.4578 0
M  V30 85 C 8.2746 -3.2847 3.4316 0
M  V30 86 H 8.2288 -1.4046 2.3630 0
M  V30 87 H 7.9199 -2.8188 1.3532 0
M  V30 88 C 7.5577 -4.6304 3.4085 0
M  V30 89 H 8.1231 -2.8096 4.4036 0
M  V30 90 H 9.3479 -3.4290 3.2917 0
M  V30 91 C 6.0551 -4.4328 3.5660 0
M  V30 92 H 7.9298 -5.2674 4.2135 0
M  V30 93 H 7.7611 -5.1335 2.4604 0
M  V30 94 H 5.8341 -3.9729 4.5307 0
M  V30 95 H 5.5372 -5.3935 3.5263 0
M  V30 96 H 5.6730 -3.9901 1.4731 0
M  V30 97 C -2.0451 -1.0379 6.0870 0
M  V30 98 C -3.0967 0.0016 5.6497 0
M  V30 99 N -1.6399 -1.7738 4.9310 0
M  V30 100 N -2.4580 0.9457 4.7880 0
M  V30 101 C -3.6378 0.7411 6.8763 0
M  V30 102 H -3.9178 -0.5339 5.1392 0
M  V30 103 C -4.2435 -0.2330 7.8792 0
M  V30 104 H -4.3859 1.4659 6.5481 0
M  V30 105 H -2.8158 1.2930 7.3355 0
M  V30 106 C -3.2054 -1.2634 8.3106 0
M  V30 107 H -5.0937 -0.7443 7.4217 0
M  V30 108 H -4.6101 0.3167 8.7484 0
M  V30 109 C -2.6627 -2.0084 7.0974 0
M  V30 110 H -3.6509 -1.9752 9.0084 0
M  V30 111 H -2.3845 -0.7579 8.8243 0
M  V30 112 H -3.4655 -2.5566 6.6011 0
M  V30 113 H -1.9019 -2.7307 7.4014 0
M  V30 114 H -1.1994 -0.4978 6.5502 0
M  V30 115 C 2.7904 0.8328 -6.2202 0
M  V30 116 C 4.1516 0.5557 -5.5506 0
M  V30 117 N 1.7915 0.0871 -5.5217 0
M  V30 118 N 4.1138 1.0942 -4.2275 0
M  V30 119 C 5.2675 1.2516 -6.3345 0
M  V30 120 H 4.3172 -0.5370 -5.5473 0
M  V30 121 C 5.2884 0.7872 -7.7856 0
M  V30 122 H 6.2231 1.0374 -5.8511 0
M  V30 123 H 5.1016 2.3292 -6.2856 0
M  V30 124 C 3.9420 1.0580 -8.4484 0
M  V30 125 H 5.5016 -0.2836 -7.8217 0
M  V30 126 H 6.0832 1.3065 -8.3251 0
M  V30 127 C 2.8240 0.3662 -7.6782 0
M  V30 128 H 3.9527 0.6995 -9.4796 0
M  V30 129 H 3.7577 2.1347 -8.4686 0
M  V30 130 H 2.9709 -0.7152 -7.6900 0
M  V30 131 H 1.8560 0.5781 -8.1374 0
M  V30 132 H 2.6004 1.9205 -6.1761 0
M  V30 133 C -5.1229 2.3916 -2.8729 0
M  V30 134 C -4.7838 3.6743 -2.0867 0
M  V30 135 N -3.8957 1.7620 -3.2460 0
M  V30 136 N -4.1517 3.2919 -0.8638 0
M  V30 137 C -6.0698 4.4382 -1.7590 0
M  V30 138 H -4.1236 4.2989 -2.7155 0
M  V30 139 C -6.8392 4.7842 -3.0278 0
M  V30 140 H -5.8093 5.3460 -1.2105 0
M  V30 141 H -6.6821 3.8154 -1.1044 0
M  V30 142 C -7.1727 3.5169 -3.8077 0
M  V30 143 H -6.2332 5.4452 -3.6517 0
M  V30 144 H -7.7562 5.3162 -2.7666 0
M  V30 145 C -5.8991 2.7507 -4.1429 0
M  V30 146 H -7.7004 3.7715 -4.7291 0
M  V30 147 H -7.8305 2.8842 -3.2074 0
M  V30 148 H -5.2525 3.3546 -4.7820 0
M  V30 149 H -6.1372 1.8307 -4.6812 0
M  V30 150 H -5.7394 1.7434 -2.2241 0
M  V30 151 C 3.3471 5.9792 1.2470 0
M  V30 152 C 2.3262 6.0330 2.4015 0
M  V30 153 N 3.7163 4.6139 1.0437 0
M  V30 154 N 1.1374 5.3646 1.9749 0
M  V30 155 C 1.9837 7.4899 2.7249 0
M  V30 156 H 2.7795 5.5467 3.2844 0
M  V30 157 C 3.2356 8.2781 3.0896 0
M  V30 158 H 1.2673 7.5080 3.5490 0
M  V30 159 H 1.5009 7.9316 1.8515 0
M  V30 160 C 4.2474 8.2236 1.9500 0
M  V30 161 H 3.6825 7.8540 3.9919 0
M  V30 162 H 2.9667 9.3146 3.3032 0
M  V30 163 C 4.5986 6.7776 1.6224 0
M  V30 164 H 5.1531 8.7671 2.2262 0
M  V30 165 H 3.8234 8.7043 1.0654 0
M  V30 166 H 5.0665 6.2983 2.4842 0
M  V30 167 H 5.3052 6.7351 0.7908 0
M  V30 168 H 2.8746 6.4177 0.3494 0
M  V30 END ATOM
M  V30 BEGIN BOND
M  V30 1 1 139 143
M  V30 2 1 160 165
M  V30 3 1 124 129
M  V30 4 1 139 144
M  V30 5 1 160 164
M  V30 6 1 124 128
M  V30 7 1 142 146
M  V30 8 1 157 162
M  V30 9 1 121 126
M  V30 10 1 139 142
M  V30 11 1 137 139
M  V30 12 1 157 160
M  V30 13 1 160 163
M  V30 14 1 121 124
M  V30 15 1 124 127
M  V30 16 1 145 148
M  V30 17 1 155 159
M  V30 18 1 119 123
M  V30 19 1 137 140
M  V30 20 1 134 138
M  V30 21 1 142 145
M  V30 22 1 142 147
M  V30 23 1 151 168
M  V30 24 1 127 131
M  V30 25 1 163 167
M  V30 26 1 115 132
M  V30 27 1 155 157
M  V30 28 1 157 161
M  V30 29 1 119 121
M  V30 30 1 121 125
M  V30 31 1 134 137
M  V30 32 1 137 141
M  V30 33 1 145 149
M  V30 34 1 133 145
M  V30 35 1 151 163
M  V30 36 1 163 166
M  V30 37 1 115 127
M  V30 38 1 127 130
M  V30 39 1 155 158
M  V30 40 1 152 155
M  V30 41 1 119 122
M  V30 42 1 116 119
M  V30 43 1 57 60
M  V30 44 1 27 30
M  V30 45 1 42 45
M  V30 46 1 133 134
M  V30 47 1 134 136
M  V30 48 1 151 152
M  V30 49 1 151 153
M  V30 50 1 115 116
M  V30 51 1 115 117
M  V30 52 1 51 53
M  V30 53 1 21 23
M  V30 54 1 36 38
M  V30 55 1 133 135
M  V30 56 1 133 150
M  V30 57 1 152 154
M  V30 58 1 152 156
M  V30 59 1 116 118
M  V30 60 1 116 120
M  V30 61 2 57 136
M  V30 62 1 49 57
M  V30 63 2 27 117
M  V30 64 1 19 27
M  V30 65 2 42 153
M  V30 66 1 34 42
M  V30 67 2 25 135
M  V30 68 2 55 154
M  V30 69 2 40 118
M  V30 70 2 49 51
M  V30 71 1 51 52
M  V30 72 2 19 21
M  V30 73 1 21 22
M  V30 74 2 34 36
M  V30 75 1 36 37
M  V30 76 1 48 49
M  V30 77 1 18 19
M  V30 78 1 33 34
M  V30 79 1 22 25
M  V30 80 1 25 28
M  V30 81 1 52 55
M  V30 82 1 55 58
M  V30 83 1 37 40
M  V30 84 1 40 43
M  V30 85 2 22 24
M  V30 86 2 52 54
M  V30 87 2 37 39
M  V30 88 1 48 50
M  V30 89 2 46 48
M  V30 90 1 18 20
M  V30 91 2 16 18
M  V30 92 1 33 35
M  V30 93 2 31 33
M  V30 94 1 46 54
M  V30 95 1 54 56
M  V30 96 1 16 24
M  V30 97 1 24 26
M  V30 98 1 31 39
M  V30 99 1 39 41
M  V30 100 1 46 47
M  V30 101 1 16 17
M  V30 102 1 31 32
M  V30 103 1 47 59
M  V30 104 2 47 100
M  V30 105 1 17 29
M  V30 106 2 17 64
M  V30 107 1 32 44
M  V30 108 2 32 82
M  V30 109 1 98 100
M  V30 110 1 62 64
M  V30 111 1 80 82
M  V30 112 1 101 104
M  V30 113 1 65 68
M  V30 114 1 83 86
M  V30 115 1 101 105
M  V30 116 1 65 69
M  V30 117 1 83 87
M  V30 118 1 98 101
M  V30 119 1 98 102
M  V30 120 1 97 98
M  V30 121 1 62 65
M  V30 122 1 62 66
M  V30 123 1 61 62
M  V30 124 1 80 83
M  V30 125 1 80 84
M  V30 126 1 79 80
M  V30 127 1 101 103
M  V30 128 1 65 67
M  V30 129 1 83 85
M  V30 130 1 2 14
M  V30 131 1 12 15
M  V30 132 1 10 13
M  V30 133 1 3 5
M  V30 134 1 3 4
M  V30 135 2 1 3
M  V30 136 2 4 6
M  V30 137 1 4 12
M  V30 138 1 1 9
M  V30 139 1 1 2
M  V30 140 1 6 7
M  V30 141 1 6 8
M  V30 142 2 7 9
M  V30 143 1 9 11
M  V30 144 1 7 10
M  V30 145 2 12 99
M  V30 146 2 2 63
M  V30 147 2 10 81
M  V30 148 1 97 114
M  V30 149 1 61 78
M  V30 150 1 79 96
M  V30 151 1 97 99
M  V30 152 1 61 63
M  V30 153 1 79 81
M  V30 154 1 97 109
M  V30 155 1 61 73
M  V30 156 1 79 91
M  V30 157 1 103 108
M  V30 158 1 103 107
M  V30 159 1 103 106
M  V30 160 1 67 72
M  V30 161 1 67 71
M  V30 162 1 67 70
M  V30 163 1 85 90
M  V30 164 1 85 89
M  V30 165 1 85 88
M  V30 166 1 106 111
M  V30 167 1 70 75
M  V30 168 1 106 109
M  V30 169 1 109 112
M  V30 170 1 109 113
M  V30 171 1 70 73
M  V30 172 1 73 76
M  V30 173 1 73 77
M  V30 174 1 88 93
M  V30 175 1 88 91
M  V30 176 1 91 94
M  V30 177 1 91 95
M  V30 178 1 106 110
M  V30 179 1 70 74
M  V30 180 1 88 92
M  V30 END BOND
M  V30 END CTAB
M  END

$$$$
