
     RDKit          3D

  0  0  0  0  0  0  0  0  0  0999 V3000
M  V30 BEGIN CTAB
M  V30 COUNTS 168 180 0 0 0
M  V30 BEGIN ATOM
M  V30 1 C -1.3568 -2.5060 3.3481 0
M  V30 2 C -2.5896 -3.2293 3.0708 0
M  V30 3 C -1.4050 -1.2339 3.9057 0
M  V30 4 C -0.2304 -0.5467 4.2117 0
M  V30 5 H -2.3479 -0.7573 4.1264 0
M  V30 6 C 0.9966 -1.1421 3.9446 0
M  V30 7 C 1.0608 -2.4184 3.3852 0
M  V30 8 H 1.9228 -0.6386 4.1759 0
M  V30 9 C -0.1179 -3.0909 3.0856 0
M  V30 10 C 2.3473 -3.0561 3.1440 0
M  V30 11 H -0.1012 -4.0818 2.6582 0
M  V30 12 C -0.2842 0.7691 4.8332 0
M  V30 13 H 2.3163 -3.9918 2.5643 0
M  V30 14 H -3.5183 -2.6448 3.1624 0
M  V30 15 H 0.6750 1.3053 4.9021 0
M  V30 16 C -2.7760 -3.2792 -1.5423 0
M  V30 17 C -2.8171 -4.3917 -0.6039 0
M  V30 18 C -1.8352 -3.2652 -2.5651 0
M  V30 19 C -1.8102 -2.2251 -3.4943 0
M  V30 20 H -1.1155 -4.0624 -2.6713 0
M  V30 21 C -2.7316 -1.1906 -3.3836 0
M  V30 22 C -3.6818 -1.1910 -2.3623 0
M  V30 23 H -2.7419 -0.3752 -4.0905 0
M  V30 24 C -3.6947 -2.2341 -1.4440 0
M  V30 25 C -4.6712 -0.1264 -2.2735 0
M  V30 26 H -4.4213 -2.2659 -0.6466 0
M  V30 27 C -0.8495 -2.2346 -4.5883 0
M  V30 28 H -5.2823 -0.1161 -1.3576 0
M  V30 29 H -1.9686 -5.0916 -0.6549 0
M  V30 30 H -0.7921 -1.3097 -5.1830 0
M  V30 31 C 4.0887 -0.6333 -0.3797 0
M  V30 32 C 4.6641 -0.9018 0.9306 0
M  V30 33 C 3.9639 0.6754 -0.8305 0
M  V30 34 C 3.4507 0.9445 -2.0993 0
M  V30 35 H 4.2731 1.5080 -0.2175 0
M  V30 36 C 3.0529 -0.1109 -2.9112 0
M  V30 37 C 3.1721 -1.4296 -2.4723 0
M  V30 38 H 2.6580 0.0644 -3.9001 0
M  V30 39 C 3.6853 -1.6825 -1.2057 0
M  V30 40 C 2.7919 -2.5348 -3.3409 0
M  V30 41 H 3.7958 -2.6921 -0.8403 0
M  V30 42 C 3.3595 2.3146 -2.5840 0
M  V30 43 H 2.7702 -3.5291 -2.8686 0
M  V30 44 H 4.8127 -0.0226 1.5767 0
M  V30 45 H 2.8049 2.4535 -3.5250 0
M  V30 46 C -1.8470 3.4816 1.4399 0
M  V30 47 C -2.3791 3.2793 2.7801 0
M  V30 48 C -2.6644 3.2983 0.3310 0
M  V30 49 C -2.1783 3.5267 -0.9563 0
M  V30 50 H -3.6928 2.9903 0.4415 0
M  V30 51 C -0.8596 3.9316 -1.1246 0
M  V30 52 C -0.0272 4.1196 -0.0211 0
M  V30 53 H -0.4560 4.1223 -2.1072 0
M  V30 54 C -0.5254 3.8883 1.2555 0
M  V30 55 C 1.3419 4.5826 -0.1987 0
M  V30 56 H 0.0917 4.0312 2.1293 0
M  V30 57 C -3.0492 3.3731 -2.1130 0
M  V30 58 H 1.9762 4.5574 0.7010 0
M  V30 59 H -3.3754 2.8133 2.8336 0
M  V30 60 H -2.5536 3.4199 -3.0950 0
M  V30 61 C -3.8221 -5.1355 2.5289 0
M  V30 62 C -3.7938 -5.6731 1.0838 0
M  V30 63 N -2.5900 -4.4544 2.7739 0
M  V30 64 N -3.7797 -4.5558 0.1932 0
M  V30 65 C -5.0517 -6.5030 0.8134 0
M  V30 66 H -2.8936 -6.3039 0.9692 0
M  V30 67 C -5.1701 -7.6554 1.8033 0
M  V30 68 H -5.0099 -6.8815 -0.2102 0
M  V30 69 H -5.9202 -5.8469 0.8926 0
M  V30 70 C -5.1953 -7.1255 3.2329 0
M  V30 71 H -4.3185 -8.3288 1.6810 0
M  V30 72 H -6.0797 -8.2232 1.5976 0
M  V30 73 C -3.9453 -6.3008 3.5144 0
M  V30 74 H -5.2531 -7.9558 3.9397 0
M  V30 75 H -6.0815 -6.5023 3.3732 0
M  V30 76 H -3.0539 -6.9237 3.4234 0
M  V30 77 H -3.9725 -5.9007 4.5302 0
M  V30 78 H -4.6931 -4.4627 2.6286 0
M  V30 79 C 4.6636 -3.2445 3.3574 0
M  V30 80 C 5.5796 -2.2836 2.5728 0
M  V30 81 N 3.4222 -2.5787 3.5974 0
M  V30 82 N 4.9972 -2.0643 1.2864 0
M  V30 83 C 6.9606 -2.9181 2.3869 0
M  V30 84 H 5.6697 -1.3460 3.1507 0
M  V30 85 C 7.5882 -3.2660 3.7310 0
M  V30 86 H 7.5966 -2.2208 1.8373 0
M  V30 87 H 6.8469 -3.8176 1.7793 0
M  V30 88 C 6.6822 -4.2140 4.5095 0
M  V30 89 H 7.7391 -2.3517 4.3096 0
M  V30 90 H 8.5648 -3.7274 3.5710 0
M  V30 91 C 5.3055 -3.5907 4.7037 0
M  V30 92 H 7.1230 -4.4394 5.4826 0
M  V30 93 H 6.5822 -5.1529 3.9602 0
M  V30 94 H 5.3855 -2.6750 5.2920 0
M  V30 95 H 4.6475 -4.2775 5.2406 0
M  V30 96 H 4.5309 -4.1617 2.7553 0
M  V30 97 C -1.3682 2.5330 5.9103 0
M  V30 98 C -2.3147 3.4473 5.1064 0
M  V30 99 N -1.3583 1.2465 5.2883 0
M  V30 100 N -1.7487 3.6434 3.8091 0
M  V30 101 C -2.4385 4.8062 5.8008 0
M  V30 102 H -3.3043 2.9579 5.0556 0
M  V30 103 C -2.9452 4.6466 7.2290 0
M  V30 104 H -3.1180 5.4359 5.2226 0
M  V30 105 H -1.4570 5.2836 5.7999 0
M  V30 106 C -2.0116 3.7404 8.0245 0
M  V30 107 H -3.9469 4.2109 7.2128 0
M  V30 108 H -3.0126 5.6267 7.7055 0
M  V30 109 C -1.8841 2.3832 7.3440 0
M  V30 110 H -2.3927 3.6074 9.0389 0
M  V30 111 H -1.0261 4.2066 8.0940 0
M  V30 112 H -2.8549 1.8856 7.3099 0
M  V30 113 H -1.1975 1.7405 7.8994 0
M  V30 114 H -0.3650 2.9967 5.9163 0
M  V30 115 C 0.7665 -3.2300 -5.9463 0
M  V30 116 C 2.1835 -3.4742 -5.3889 0
M  V30 117 N -0.1514 -3.2506 -4.8514 0
M  V30 118 N 2.5336 -2.3621 -4.5624 0
M  V30 119 C 3.1865 -3.5668 -6.5419 0
M  V30 120 H 2.1713 -4.4226 -4.8218 0
M  V30 121 C 2.8027 -4.6763 -7.5132 0
M  V30 122 H 4.1812 -3.7480 -6.1288 0
M  V30 123 H 3.2080 -2.6049 -7.0572 0
M  V30 124 C 1.4005 -4.4377 -8.0632 0
M  V30 125 H 2.8306 -5.6381 -6.9961 0
M  V30 126 H 3.5251 -4.7133 -8.3312 0
M  V30 127 C 0.3929 -4.3479 -6.9237 0
M  V30 128 H 1.1192 -5.2488 -8.7378 0
M  V30 129 H 1.3883 -3.5062 -8.6338 0
M  V30 130 H 0.3610 -5.2896 -6.3732 0
M  V30 131 H -0.6085 -4.1535 -7.3138 0
M  V30 132 H 0.7653 -2.2560 -6.4684 0
M  V30 133 C -5.8283 1.7294 -3.0884 0
M  V30 134 C -5.1213 3.0986 -3.1512 0
M  V30 135 N -4.8333 0.7101 -3.2023 0
M  V30 136 N -4.2952 3.2257 -1.9923 0
M  V30 137 C -6.1619 4.2218 -3.1403 0
M  V30 138 H -4.5319 3.1389 -4.0852 0
M  V30 139 C -7.1359 4.0765 -4.3030 0
M  V30 140 H -5.6436 5.1816 -3.1937 0
M  V30 141 H -6.6990 4.1835 -2.1910 0
M  V30 142 C -7.8337 2.7219 -4.2438 0
M  V30 143 H -6.5918 4.1633 -5.2463 0
M  V30 144 H -7.8737 4.8804 -4.2654 0
M  V30 145 C -6.8071 1.5961 -4.2582 0
M  V30 146 H -8.5108 2.6113 -5.0932 0
M  V30 147 H -8.4285 2.6599 -3.3295 0
M  V30 148 H -6.2364 1.6178 -5.1883 0
M  V30 149 H -7.3035 0.6255 -4.1922 0
M  V30 150 H -6.3748 1.6681 -2.1299 0
M  V30 151 C 3.8144 4.6017 -2.4923 0
M  V30 152 C 3.1051 5.4768 -1.4390 0
M  V30 153 N 3.9077 3.2728 -1.9757 0
M  V30 154 N 1.7603 5.0116 -1.3076 0
M  V30 155 C 3.0792 6.9345 -1.9068 0
M  V30 156 H 3.6653 5.3946 -0.4899 0
M  V30 157 C 4.4893 7.4526 -2.1610 0
M  V30 158 H 2.5815 7.5391 -1.1455 0
M  V30 159 H 2.4857 6.9918 -2.8208 0
M  V30 160 C 5.1930 6.5866 -3.2003 0
M  V30 161 H 5.0576 7.4333 -1.2281 0
M  V30 162 H 4.4429 8.4878 -2.5048 0
M  V30 163 C 5.2281 5.1336 -2.7429 0
M  V30 164 H 6.2119 6.9452 -3.3597 0
M  V30 165 H 4.6596 6.6558 -4.1512 0
M  V30 166 H 5.7987 5.0431 -1.8169 0
M  V30 167 H 5.7107 4.5075 -3.4964 0
M  V30 168 H 3.2248 4.6417 -3.4261 0
M  V30 END ATOM
M  V30 BEGIN BOND
M  V30 1 1 139 143
M  V30 2 1 160 165
M  V30 3 1 124 129
M  V30 4 1 139 144
M  V30 5 1 160 164
M  V30 6 1 124 128
M  V30 7 1 142 146
M  V30 8 1 157 162
M  V30 9 1 121 126
M  V30 10 1 139 142
M  V30 11 1 137 139
M  V30 12 1 157 160
M  V30 13 1 160 163
M  V30 14 1 121 124
M  V30 15 1 124 127
M  V30 16 1 145 148
M  V30 17 1 155 159
M  V30 18 1 119 123
M  V30 19 1 137 140
M  V30 20 1 134 138
M  V30 21 1 142 145
M  V30 22 1 142 147
M  V30 23 1 151 168
M  V30 24 1 127 131
M  V30 25 1 163 167
M  V30 26 1 115 132
M  V30 27 1 155 157
M  V30 28 1 157 161
M  V30 29 1 119 121
M  V30 30 1 121 125
M  V30 31 1 134 137
M  V30 32 1 137 141
M  V30 33 1 145 149
M  V30 34 1 133 145
M  V30 35 1 151 163
M  V30 36 1 163 166
M  V30 37 1 115 127
M  V30 38 1 127 130
M  V30 39 1 155 158
M  V30 40 1 152 155
M  V30 41 1 119 122
M  V30 42 1 116 119
M  V30 43 1 57 60
M  V30 44 1 27 30
M  V30 45 1 42 45
M  V30 46 1 133 134
M  V30 47 1 134 136
M  V30 48 1 151 152
M  V30 49 1 151 153
M  V30 50 1 115 116
M  V30 51 1 115 117
M  V30 52 1 51 53
M  V30 53 1 21 23
M  V30 54 1 36 38
M  V30 55 1 133 135
M  V30 56 1 133 150
M  V30 57 1 152 154
M  V30 58 1 152 156
M  V30 59 1 116 118
M  V30 60 1 116 120
M  V30 61 2 57 136
M  V30 62 1 49 57
M  V30 63 2 27 117
M  V30 64 1 19 27
M  V30 65 2 42 153
M  V30 66 1 34 42
M  V30 67 2 25 135
M  V30 68 2 55 154
M  V30 69 2 40 118
M  V30 70 2 49 51
M  V30 71 1 51 52
M  V30 72 2 19 21
M  V30 73 1 21 22
M  V30 74 2 34 36
M  V30 75 1 36 37
M  V30 76 1 48 49
M  V30 77 1 18 19
M  V30 78 1 33 34
M  V30 79 1 22 25
M  V30 80 1 25 28
M  V30 81 1 52 55
M  V30 82 1 55 58
M  V30 83 1 37 40
M  V30 84 1 40 43
M  V30 85 2 22 24
M  V30 86 2 52 54
M  V30 87 2 37 39
M  V30 88 1 48 50
M  V30 89 2 46 48
M  V30 90 1 18 20
M  V30 91 2 16 18
M  V30 92 1 33 35
M  V30 93 2 31 33
M  V30 94 1 46 54
M  V30 95 1 54 56
M  V30 96 1 16 24
M  V30 97 1 24 26
M  V30 98 1 31 39
M  V30 99 1 39 41
M  V30 100 1 46 47
M  V30 101 1 16 17
M  V30 102 1 31 32
M  V30 103 1 47 59
M  V30 104 2 47 100
M  V30 105 1 17 29
M  V30 106 2 17 64
M  V30 107 1 32 44
M  V30 108 2 32 82
M  V30 109 1 98 100
M  V30 110 1 62 64
M  V30 111 1 80 82
M  V30 112 1 101 104
M  V30 113 1 65 68
M  V30 114 1 83 86
M  V30 115 1 101 105
M  V30 116 1 65 69
M  V30 117 1 83 87
M  V30 118 1 98 101
M  V30 119 1 98 102
M  V30 120 1 97 98
M  V30 121 1 62 65
M  V30 122 1 62 66
M  V30 123 1 61 62
M  V30 124 1 80 83
M  V30 125 1 80 84
M  V30 126 1 79 80
M  V30 127 1 101 103
M  V30 128 1 65 67
M  V30 129 1 83 85
M  V30 130 1 2 14
M  V30 131 1 12 15
M  V30 132 1 10 13
M  V30 133 1 3 5
M  V30 134 1 3 4
M  V30 135 2 1 3
M  V30 136 2 4 6
M  V30 137 1 4 12
M  V30 138 1 1 9
M  V30 139 1 1 2
M  V30 140 1 6 7
M  V30 141 1 6 8
M  V30 142 2 7 9
M  V30 143 1 9 11
M  V30 144 1 7 10
M  V30 145 2 12 99
M  V30 146 2 2 63
M  V30 147 2 10 81
M  V30 148 1 97 114
M  V30 149 1 61 78
M  V30 150 1 79 96
M  V30 151 1 97 99
M  V30 152 1 61 63
M  V30 153 1 79 81
M  V30 154 1 97 109
M  V30 155 1 61 73
M  V30 156 1 79 91
M  V30 157 1 103 108
M  V30 158 1 103 107
M  V30 159 1 103 106
M  V30 160 1 67 72
M  V30 161 1 67 71
M  V30 162 1 67 70
M  V30 163 1 85 90
M  V30 164 1 85 89
M  V30 165 1 85 88
M  V30 166 1 106 111
M  V30 167 1 70 75
M  V30 168 1 106 109
M  V30 169 1 109 112
M  V30 170 1 109 113
M  V30 171 1 70 73
M  V30 172 1 73 76
M  V30 173 1 73 77
M  V30 174 1 88 93
M  V30 175 1 88 91
M  V30 176 1 91 94
M  V30 177 1 91 95
M  V30 178 1 106 110
M  V30 179 1 70 74
M  V30 180 1 88 92
M  V30 END BOND
M  V30 END CTAB
M  END

$$$$
