
     RDKit          3D

  0  0  0  0  0  0  0  0  0  0999 V3000
M  V30 BEGIN CTAB
M  V30 COUNTS 168 180 0 0 0
M  V30 BEGIN ATOM
M  V30 1 C 1.3694 2.2152 -3.4300 0
M  V30 2 C 2.7794 1.9485 -3.6766 0
M  V30 3 C 0.9927 3.2714 -2.6091 0
M  V30 4 C -0.3551 3.5608 -2.3962 0
M  V30 5 H 1.7311 3.8970 -2.1315 0
M  V30 6 C -1.3253 2.7749 -3.0064 0
M  V30 7 C -0.9624 1.7114 -3.8330 0
M  V30 8 H -2.3761 2.9775 -2.8664 0
M  V30 9 C 0.3844 1.4350 -4.0357 0
M  V30 10 C -1.9806 0.9150 -4.5032 0
M  V30 11 H 0.6969 0.6232 -4.6747 0
M  V30 12 C -0.7463 4.6929 -1.5682 0
M  V30 13 H -1.6201 0.0073 -5.0117 0
M  V30 14 H 3.4893 2.5068 -3.0468 0
M  V30 15 H -1.8185 4.7618 -1.3274 0
M  V30 16 C 3.5170 -2.0189 -1.4330 0
M  V30 17 C 3.7571 -1.6895 -2.8308 0
M  V30 18 C 2.7380 -3.1209 -1.1009 0
M  V30 19 C 2.5326 -3.4704 0.2338 0
M  V30 20 H 2.2885 -3.7364 -1.8650 0
M  V30 21 C 3.1073 -2.6983 1.2363 0
M  V30 22 C 3.8916 -1.5894 0.9183 0
M  V30 23 H 2.9721 -2.9466 2.2779 0
M  V30 24 C 4.0876 -1.2534 -0.4159 0
M  V30 25 C 4.5251 -0.8066 1.9701 0
M  V30 26 H 4.6943 -0.4052 -0.6939 0
M  V30 27 C 1.7497 -4.6491 0.5769 0
M  V30 28 H 4.9958 0.1353 1.6481 0
M  V30 29 H 3.1511 -2.2448 -3.5635 0
M  V30 30 H 1.5062 -4.7681 1.6441 0
M  V30 31 C -3.9015 -1.4748 -1.0511 0
M  V30 32 C -4.5294 -0.5971 -2.0284 0
M  V30 33 C -4.0960 -1.2563 0.3076 0
M  V30 34 C -3.5324 -2.1126 1.2535 0
M  V30 35 H -4.6966 -0.4314 0.6591 0
M  V30 36 C -2.7614 -3.1869 0.8260 0
M  V30 37 C -2.5573 -3.4189 -0.5343 0
M  V30 38 H -2.3174 -3.8708 1.5330 0
M  V30 39 C -3.1252 -2.5572 -1.4652 0
M  V30 40 C -1.7825 -4.5684 -0.9797 0
M  V30 41 H -2.9908 -2.7140 -2.5246 0
M  V30 42 C -3.7723 -1.9041 2.6745 0
M  V30 43 H -1.5390 -4.5946 -2.0531 0
M  V30 44 H -4.9939 0.3152 -1.6229 0
M  V30 45 H -3.1716 -2.5247 3.3575 0
M  V30 46 C 0.3837 3.3294 2.6953 0
M  V30 47 C 0.7886 4.5254 1.9702 0
M  V30 48 C 1.3449 2.4835 3.2355 0
M  V30 49 C 0.9702 1.3557 3.9658 0
M  V30 50 H 2.3979 2.6872 3.1148 0
M  V30 51 C -0.3795 1.0757 4.1422 0
M  V30 52 C -1.3558 1.9154 3.6056 0
M  V30 53 H -0.7011 0.2144 4.7073 0
M  V30 54 C -0.9674 3.0356 2.8805 0
M  V30 55 C -2.7687 1.6413 3.8266 0
M  V30 56 H -1.6988 3.7078 2.4586 0
M  V30 57 C 1.9799 0.4943 4.5648 0
M  V30 58 H -3.4724 2.2574 3.2455 0
M  V30 59 H 1.8619 4.6023 1.7366 0
M  V30 60 H 1.6109 -0.4521 4.9896 0
M  V30 61 C 4.5519 0.9297 -4.8019 0
M  V30 62 C 4.8468 -0.5646 -4.5603 0
M  V30 63 N 3.1584 1.1500 -4.5754 0
M  V30 64 N 4.6255 -0.8440 -3.1765 0
M  V30 65 C 6.3098 -0.8665 -4.8963 0
M  V30 66 H 4.1798 -1.1567 -5.2129 0
M  V30 67 C 6.6284 -0.4919 -6.3385 0
M  V30 68 H 6.4973 -1.9290 -4.7272 0
M  V30 69 H 6.9437 -0.3014 -4.2108 0
M  V30 70 C 6.3346 0.9848 -6.5797 0
M  V30 71 H 6.0205 -1.0979 -7.0144 0
M  V30 72 H 7.6784 -0.7048 -6.5490 0
M  V30 73 C 4.8794 1.2959 -6.2520 0
M  V30 74 H 6.5388 1.2426 -7.6209 0
M  V30 75 H 6.9875 1.5924 -5.9488 0
M  V30 76 H 4.2157 0.7299 -6.9078 0
M  V30 77 H 4.6728 2.3578 -6.4017 0
M  V30 78 H 5.1813 1.5204 -4.1118 0
M  V30 79 C -4.1594 0.4659 -5.2083 0
M  V30 80 C -5.2085 -0.0055 -4.1809 0
M  V30 81 N -3.1920 1.2628 -4.5221 0
M  V30 82 N -4.5629 -0.8826 -3.2558 0
M  V30 83 C -6.3242 -0.7751 -4.8933 0
M  V30 84 H -5.6257 0.8875 -3.6811 0
M  V30 85 C -6.9835 0.0844 -5.9648 0
M  V30 86 H -7.0605 -1.0931 -4.1519 0
M  V30 87 H -5.8918 -1.6712 -5.3415 0
M  V30 88 C -5.9469 0.5536 -6.9800 0
M  V30 89 H -7.4522 0.9532 -5.4968 0
M  V30 90 H -7.7655 -0.4902 -6.4655 0
M  V30 91 C -4.8332 1.3245 -6.2820 0
M  V30 92 H -6.4188 1.1909 -7.7306 0
M  V30 93 H -5.5234 -0.3129 -7.4929 0
M  V30 94 H -5.2358 2.2192 -5.8041 0
M  V30 95 H -4.0775 1.6415 -7.0039 0
M  V30 96 H -3.7046 -0.4290 -5.6706 0
M  V30 97 C -0.3358 6.6622 -0.3849 0
M  V30 98 C 0.4047 6.5963 0.9661 0
M  V30 99 N 0.0891 5.5529 -1.1794 0
M  V30 100 N -0.0358 5.4265 1.6586 0
M  V30 101 C 0.0594 7.8272 1.8086 0
M  V30 102 H 1.4906 6.5711 0.7621 0
M  V30 103 C 0.4177 9.1121 1.0722 0
M  V30 104 H 0.5986 7.7670 2.7563 0
M  V30 105 H -1.0092 7.8042 2.0292 0
M  V30 106 C -0.3117 9.1775 -0.2654 0
M  V30 107 H 1.4960 9.1436 0.8993 0
M  V30 108 H 0.1508 9.9736 1.6875 0
M  V30 109 C 0.0279 7.9585 -1.1140 0
M  V30 110 H -0.0315 10.0865 -0.8013 0
M  V30 111 H -1.3894 9.2096 -0.0895 0
M  V30 112 H 1.0962 7.9396 -1.3367 0
M  V30 113 H -0.5117 7.9913 -2.0631 0
M  V30 114 H -1.4221 6.6340 -0.1835 0
M  V30 115 C 0.6502 -6.6478 0.0842 0
M  V30 116 C -0.6971 -6.6105 -0.6651 0
M  V30 117 N 1.4007 -5.4919 -0.2931 0
M  V30 118 N -1.4402 -5.4872 -0.1875 0
M  V30 119 C -1.4901 -7.8869 -0.3722 0
M  V30 120 H -0.4867 -6.5365 -1.7475 0
M  V30 121 C -0.6984 -9.1264 -0.7705 0
M  V30 122 H -2.4357 -7.8462 -0.9171 0
M  V30 123 H -1.7192 -7.9123 0.6945 0
M  V30 124 C 0.6355 -9.1633 -0.0324 0
M  V30 125 H -0.5166 -9.1112 -1.8476 0
M  V30 126 H -1.2793 -10.0219 -0.5403 0
M  V30 127 C 1.4352 -7.8986 -0.3203 0
M  V30 128 H 1.2107 -10.0386 -0.3408 0
M  V30 129 H 0.4535 -9.2420 1.0419 0
M  V30 130 H 1.6644 -7.8315 -1.3852 0
M  V30 131 H 2.3808 -7.9121 0.2259 0
M  V30 132 H 0.4401 -6.6682 1.1690 0
M  V30 133 C 5.2035 -0.4156 4.1687 0
M  V30 134 C 4.1536 -0.0325 5.2314 0
M  V30 135 N 4.5549 -1.2013 3.1668 0
M  V30 136 N 3.1938 0.8297 4.6172 0
M  V30 137 C 4.8286 0.7209 6.3808 0
M  V30 138 H 3.6914 -0.9624 5.6094 0
M  V30 139 C 5.9348 -0.1173 7.0094 0
M  V30 140 H 4.0721 0.9761 7.1260 0
M  V30 141 H 5.2386 1.6527 5.9871 0
M  V30 142 C 6.9723 -0.4993 5.9592 0
M  V30 143 H 5.5039 -1.0240 7.4403 0
M  V30 144 H 6.4078 0.4461 7.8164 0
M  V30 145 C 6.3117 -1.2537 4.8119 0
M  V30 146 H 7.7488 -1.1220 6.4081 0
M  V30 147 H 7.4481 0.4053 5.5734 0
M  V30 148 H 5.8721 -2.1841 5.1757 0
M  V30 149 H 7.0488 -1.5079 4.0472 0
M  V30 150 H 5.6277 0.5161 3.7527 0
M  V30 151 C -4.8577 -0.9215 4.4919 0
M  V30 152 C -4.5521 0.5450 4.8583 0
M  V30 153 N -4.6352 -1.0846 3.0899 0
M  V30 154 N -3.1563 0.7725 4.6535 0
M  V30 155 C -4.8807 0.7913 6.3334 0
M  V30 156 H -5.1750 1.1963 4.2188 0
M  V30 157 C -6.3391 0.4653 6.6307 0
M  V30 158 H -4.6663 1.8353 6.5716 0
M  V30 159 H -4.2232 0.1671 6.9409 0
M  V30 160 C -6.6436 -0.9837 6.2662 0
M  V30 161 H -6.9855 1.1286 6.0512 0
M  V30 162 H -6.5444 0.6370 7.6893 0
M  V30 163 C -6.3238 -1.2390 4.7985 0
M  V30 164 H -7.6958 -1.2050 6.4558 0
M  V30 165 H -6.0423 -1.6487 6.8905 0
M  V30 166 H -6.9516 -0.6138 4.1612 0
M  V30 167 H -6.5187 -2.2823 4.5410 0
M  V30 168 H -4.1966 -1.5712 5.0936 0
M  V30 END ATOM
M  V30 BEGIN BOND
M  V30 1 1 139 143
M  V30 2 1 160 165
M  V30 3 1 124 129
M  V30 4 1 139 144
M  V30 5 1 160 164
M  V30 6 1 124 128
M  V30 7 1 142 146
M  V30 8 1 157 162
M  V30 9 1 121 126
M  V30 10 1 139 142
M  V30 11 1 137 139
M  V30 12 1 157 160
M  V30 13 1 160 163
M  V30 14 1 121 124
M  V30 15 1 124 127
M  V30 16 1 145 148
M  V30 17 1 155 159
M  V30 18 1 119 123
M  V30 19 1 137 140
M  V30 20 1 134 138
M  V30 21 1 142 145
M  V30 22 1 142 147
M  V30 23 1 151 168
M  V30 24 1 127 131
M  V30 25 1 163 167
M  V30 26 1 115 132
M  V30 27 1 155 157
M  V30 28 1 157 161
M  V30 29 1 119 121
M  V30 30 1 121 125
M  V30 31 1 134 137
M  V30 32 1 137 141
M  V30 33 1 145 149
M  V30 34 1 133 145
M  V30 35 1 151 163
M  V30 36 1 163 166
M  V30 37 1 115 127
M  V30 38 1 127 130
M  V30 39 1 155 158
M  V30 40 1 152 155
M  V30 41 1 119 122
M  V30 42 1 116 119
M  V30 43 1 57 60
M  V30 44 1 27 30
M  V30 45 1 42 45
M  V30 46 1 133 134
M  V30 47 1 134 136
M  V30 48 1 151 152
M  V30 49 1 151 153
M  V30 50 1 115 116
M  V30 51 1 115 117
M  V30 52 1 51 53
M  V30 53 1 21 23
M  V30 54 1 36 38
M  V30 55 1 133 135
M  V30 56 1 133 150
M  V30 57 1 152 154
M  V30 58 1 152 156
M  V30 59 1 116 118
M  V30 60 1 116 120
M  V30 61 2 57 136
M  V30 62 1 49 57
M  V30 63 2 27 117
M  V30 64 1 19 27
M  V30 65 2 42 153
M  V30 66 1 34 42
M  V30 67 2 25 135
M  V30 68 2 55 154
M  V30 69 2 40 118
M  V30 70 2 49 51
M  V30 71 1 51 52
M  V30 72 2 19 21
M  V30 73 1 21 22
M  V30 74 2 34 36
M  V30 75 1 36 37
M  V30 76 1 48 49
M  V30 77 1 18 19
M  V30 78 1 33 34
M  V30 79 1 22 25
M  V30 80 1 25 28
M  V30 81 1 52 55
M  V30 82 1 55 58
M  V30 83 1 37 40
M  V30 84 1 40 43
M  V30 85 2 22 24
M  V30 86 2 52 54
M  V30 87 2 37 39
M  V30 88 1 48 50
M  V30 89 2 46 48
M  V30 90 1 18 20
M  V30 91 2 16 18
M  V30 92 1 33 35
M  V30 93 2 31 33
M  V30 94 1 46 54
M  V30 95 1 54 56
M  V30 96 1 16 24
M  V30 97 1 24 26
M  V30 98 1 31 39
M  V30 99 1 39 41
M  V30 100 1 46 47
M  V30 101 1 16 17
M  V30 102 1 31 32
M  V30 103 1 47 59
M  V30 104 2 47 100
M  V30 105 1 17 29
M  V30 106 2 17 64
M  V30 107 1 32 44
M  V30 108 2 32 82
M  V30 109 1 98 100
M  V30 110 1 62 64
M  V30 111 1 80 82
M  V30 112 1 101 104
M  V30 113 1 65 68
M  V30 114 1 83 86
M  V30 115 1 101 105
M  V30 116 1 65 69
M  V30 117 1 83 87
M  V30 118 1 98 101
M  V30 119 1 98 102
M  V30 120 1 97 98
M  V30 121 1 62 65
M  V30 122 1 62 66
M  V30 123 1 61 62
M  V30 124 1 80 83
M  V30 125 1 80 84
M  V30 126 1 79 80
M  V30 127 1 101 103
M  V30 128 1 65 67
M  V30 129 1 83 85
M  V30 130 1 2 14
M  V30 131 1 12 15
M  V30 132 1 10 13
M  V30 133 1 3 5
M  V30 134 1 3 4
M  V30 135 2 1 3
M  V30 136 2 4 6
M  V30 137 1 4 12
M  V30 138 1 1 9
M  V30 139 1 1 2
M  V30 140 1 6 7
M  V30 141 1 6 8
M  V30 142 2 7 9
M  V30 143 1 9 11
M  V30 144 1 7 10
M  V30 145 2 12 99
M  V30 146 2 2 63
M  V30 147 2 10 81
M  V30 148 1 97 114
M  V30 149 1 61 78
M  V30 150 1 79 96
M  V30 151 1 97 99
M  V30 152 1 61 63
M  V30 153 1 79 81
M  V30 154 1 97 109
M  V30 155 1 61 73
M  V30 156 1 79 91
M  V30 157 1 103 108
M  V30 158 1 103 107
M  V30 159 1 103 106
M  V30 160 1 67 72
M  V30 161 1 67 71
M  V30 162 1 67 70
M  V30 163 1 85 90
M  V30 164 1 85 89
M  V30 165 1 85 88
M  V30 166 1 106 111
M  V30 167 1 70 75
M  V30 168 1 106 109
M  V30 169 1 109 112
M  V30 170 1 109 113
M  V30 171 1 70 73
M  V30 172 1 73 76
M  V30 173 1 73 77
M  V30 174 1 88 93
M  V30 175 1 88 91
M  V30 176 1 91 94
M  V30 177 1 91 95
M  V30 178 1 106 110
M  V30 179 1 70 74
M  V30 180 1 88 92
M  V30 END BOND
M  V30 END CTAB
M  END

$$$$
