
     RDKit          3D

  0  0  0  0  0  0  0  0  0  0999 V3000
M  V30 BEGIN CTAB
M  V30 COUNTS 168 180 0 0 0
M  V30 BEGIN ATOM
M  V30 1 C -1.0438 -2.1598 3.3576 0
M  V30 2 C -2.2277 -3.0050 3.2956 0
M  V30 3 C -1.1554 -0.8309 3.7486 0
M  V30 4 C -0.0236 -0.0218 3.8492 0
M  V30 5 H -2.1141 -0.4012 3.9958 0
M  V30 6 C 1.2235 -0.5539 3.5441 0
M  V30 7 C 1.3511 -1.8860 3.1502 0
M  V30 8 H 2.1184 0.0448 3.6185 0
M  V30 9 C 0.2146 -2.6800 3.0545 0
M  V30 10 C 2.6633 -2.4518 2.8705 0
M  V30 11 H 0.2814 -3.7158 2.7587 0
M  V30 12 C -0.1391 1.3585 4.2982 0
M  V30 13 H 2.6649 -3.4574 2.4219 0
M  V30 14 H -3.1928 -2.4852 3.4000 0
M  V30 15 H 0.7718 1.9699 4.2049 0
M  V30 16 C -2.8020 -3.6969 -1.2331 0
M  V30 17 C -2.6654 -4.6711 -0.1597 0
M  V30 18 C -1.9567 -3.7515 -2.3350 0
M  V30 19 C -2.1022 -2.8488 -3.3884 0
M  V30 20 H -1.1817 -4.4992 -2.4064 0
M  V30 21 C -3.0978 -1.8814 -3.3238 0
M  V30 22 C -3.9537 -1.8142 -2.2243 0
M  V30 23 H -3.2398 -1.1730 -4.1255 0
M  V30 24 C -3.7969 -2.7204 -1.1823 0
M  V30 25 C -5.0213 -0.8251 -2.1785 0
M  V30 26 H -4.4472 -2.6980 -0.3213 0
M  V30 27 C -1.2413 -2.9349 -4.5595 0
M  V30 28 H -5.5506 -0.7362 -1.2171 0
M  V30 29 H -1.7663 -5.3055 -0.2015 0
M  V30 30 H -1.3161 -2.0980 -5.2710 0
M  V30 31 C 3.8789 -0.4074 -1.0869 0
M  V30 32 C 4.5853 -0.4507 0.1855 0
M  V30 33 C 3.6020 0.8145 -1.6885 0
M  V30 34 C 2.9608 0.8688 -2.9260 0
M  V30 35 H 3.8883 1.7438 -1.2204 0
M  V30 36 C 2.5890 -0.3144 -3.5531 0
M  V30 37 C 2.8602 -1.5482 -2.9615 0
M  V30 38 H 2.0974 -0.3057 -4.5138 0
M  V30 39 C 3.4999 -1.5867 -1.7282 0
M  V30 40 C 2.5055 -2.7869 -3.6399 0
M  V30 41 H 3.7291 -2.5258 -1.2482 0
M  V30 42 C 2.7090 2.1492 -3.5721 0
M  V30 43 H 2.6113 -3.7064 -3.0437 0
M  V30 44 H 4.7109 0.5170 0.6957 0
M  V30 45 H 2.0661 2.1165 -4.4654 0
M  V30 46 C -2.2172 3.4578 0.7501 0
M  V30 47 C -2.6133 3.4004 2.1501 0
M  V30 48 C -3.1071 3.0640 -0.2421 0
M  V30 49 C -2.7544 3.1509 -1.5888 0
M  V30 50 H -4.0914 2.6973 0.0055 0
M  V30 51 C -1.4954 3.6272 -1.9340 0
M  V30 52 C -0.5915 4.0261 -0.9491 0
M  V30 53 H -1.1954 3.7122 -2.9672 0
M  V30 54 C -0.9568 3.9340 0.3886 0
M  V30 55 C 0.7116 4.5625 -1.3158 0
M  V30 56 H -0.2823 4.2407 1.1732 0
M  V30 57 C -3.7041 2.7758 -2.6269 0
M  V30 58 H 1.4201 4.7080 -0.4856 0
M  V30 59 H -3.5567 2.8723 2.3588 0
M  V30 60 H -3.3001 2.7257 -3.6499 0
M  V30 61 C -3.3304 -5.0547 3.1248 0
M  V30 62 C -3.3786 -5.7806 1.7651 0
M  V30 63 N -2.1463 -4.2556 3.1604 0
M  V30 64 N -3.5383 -4.7971 0.7408 0
M  V30 65 C -4.5775 -6.7321 1.7261 0
M  V30 66 H -2.4397 -6.3515 1.6466 0
M  V30 67 C -4.5096 -7.7444 2.8629 0
M  V30 68 H -4.5902 -7.2422 0.7605 0
M  V30 69 H -5.4901 -6.1386 1.8034 0
M  V30 70 C -4.4590 -7.0281 4.2082 0
M  V30 71 H -3.6159 -8.3621 2.7470 0
M  V30 72 H -5.3802 -8.4019 2.8206 0
M  V30 73 C -3.2666 -6.0808 4.2594 0
M  V30 74 H -4.3834 -7.7563 5.0182 0
M  V30 75 H -5.3812 -6.4602 4.3516 0
M  V30 76 H -2.3351 -6.6414 4.1641 0
M  V30 77 H -3.2418 -5.5493 5.2131 0
M  V30 78 H -4.2453 -4.4422 3.2204 0
M  V30 79 C 4.9969 -2.4342 2.8826 0
M  V30 80 C 5.7550 -1.5228 1.8962 0
M  V30 81 N 3.7270 -1.8374 3.1531 0
M  V30 82 N 5.0480 -1.5253 0.6544 0
M  V30 83 C 7.1653 -2.0708 1.6616 0
M  V30 84 H 5.8116 -0.5111 2.3372 0
M  V30 85 C 7.9333 -2.1840 2.9727 0
M  V30 86 H 7.6886 -1.4089 0.9682 0
M  V30 87 H 7.0793 -3.0506 1.1887 0
M  V30 88 C 7.1835 -3.0827 3.9503 0
M  V30 89 H 8.0524 -1.1906 3.4114 0
M  V30 90 H 8.9293 -2.5880 2.7802 0
M  V30 91 C 5.7791 -2.5444 4.1942 0
M  V30 92 H 7.7238 -3.1395 4.8974 0
M  V30 93 H 7.1196 -4.0925 3.5386 0
M  V30 94 H 5.8286 -1.5536 4.6492 0
M  V30 95 H 5.2321 -3.1992 4.8758 0
M  V30 96 H 4.8941 -3.4323 2.4192 0
M  V30 97 C -1.2774 3.1659 5.2384 0
M  V30 98 C -2.3655 3.8882 4.4184 0
M  V30 99 N -1.2081 1.8111 4.7893 0
M  V30 100 N -1.9317 3.9478 3.0582 0
M  V30 101 C -2.5480 5.3158 4.9406 0
M  V30 102 H -3.3092 3.3232 4.5265 0
M  V30 103 C -2.9151 5.3145 6.4195 0
M  V30 104 H -3.3269 5.8077 4.3542 0
M  V30 105 H -1.6158 5.8612 4.7838 0
M  V30 106 C -1.8414 4.5982 7.2315 0
M  V30 107 H -3.8726 4.8064 6.5561 0
M  V30 108 H -3.0272 6.3425 6.7700 0
M  V30 109 C -1.6541 3.1744 6.7225 0
M  V30 110 H -2.1214 4.5762 8.2866 0
M  V30 111 H -0.8981 5.1424 7.1453 0
M  V30 112 H -2.5769 2.6050 6.8463 0
M  V30 113 H -0.8690 2.6670 7.2873 0
M  V30 114 H -0.3219 3.7004 5.0881 0
M  V30 115 C 0.3338 -3.9813 -5.9270 0
M  V30 116 C 1.8091 -4.0397 -5.4817 0
M  V30 117 N -0.4820 -3.9217 -4.7555 0
M  V30 118 N 2.1298 -2.8023 -4.8430 0
M  V30 119 C 2.7144 -4.2127 -6.7044 0
M  V30 120 H 1.9284 -4.9003 -4.7988 0
M  V30 121 C 2.3476 -5.4699 -7.4832 0
M  V30 122 H 3.7527 -4.2604 -6.3691 0
M  V30 123 H 2.6075 -3.3311 -7.3389 0
M  V30 124 C 0.8882 -5.4149 -7.9218 0
M  V30 125 H 2.5037 -6.3475 -6.8516 0
M  V30 126 H 2.9980 -5.5635 -8.3552 0
M  V30 127 C -0.0225 -5.2469 -6.7118 0
M  V30 128 H 0.6224 -6.3292 -8.4562 0
M  V30 129 H 0.7458 -4.5734 -8.6039 0
M  V30 130 H 0.0752 -6.1045 -6.0440 0
M  V30 131 H -1.0667 -5.1836 -7.0255 0
M  V30 132 H 0.2028 -3.0904 -6.5676 0
M  V30 133 C -6.4017 0.8098 -3.1106 0
M  V30 134 C -5.8252 2.2070 -3.4168 0
M  V30 135 N -5.3347 -0.1376 -3.1874 0
M  V30 136 N -4.9175 2.5527 -2.3689 0
M  V30 137 C -6.9554 3.2395 -3.4506 0
M  V30 138 H -5.3235 2.1640 -4.4006 0
M  V30 139 C -8.0086 2.8641 -4.4858 0
M  V30 140 H -6.5295 4.2194 -3.6769 0
M  V30 141 H -7.4041 3.2906 -2.4571 0
M  V30 142 C -8.5776 1.4815 -4.1857 0
M  V30 143 H -7.5567 2.8624 -5.4804 0
M  V30 144 H -8.8080 3.6078 -4.4813 0
M  V30 145 C -7.4613 0.4449 -4.1538 0
M  V30 146 H -9.3123 1.2055 -4.9447 0
M  V30 147 H -9.0845 1.5000 -3.2182 0
M  V30 148 H -6.9762 0.3826 -5.1294 0
M  V30 149 H -7.8634 -0.5423 -3.9159 0
M  V30 150 H -6.8570 0.8386 -2.1040 0
M  V30 151 C 2.9681 4.4553 -3.8199 0
M  V30 152 C 2.2774 5.4097 -2.8248 0
M  V30 153 N 3.2212 3.2200 -3.1479 0
M  V30 154 N 0.9947 4.8667 -2.5058 0
M  V30 155 C 2.0842 6.7839 -3.4717 0
M  V30 156 H 2.9217 5.5001 -1.9314 0
M  V30 157 C 3.4168 7.3674 -3.9251 0
M  V30 158 H 1.6024 7.4474 -2.7503 0
M  V30 159 H 1.4122 6.6712 -4.3242 0
M  V30 160 C 4.1023 6.4234 -4.9070 0
M  V30 161 H 4.0621 7.5183 -3.0565 0
M  V30 162 H 3.2507 8.3397 -4.3932 0
M  V30 163 C 4.3033 5.0531 -4.2718 0
M  V30 164 H 5.0685 6.8327 -5.2086 0
M  V30 165 H 3.4857 6.3219 -5.8031 0
M  V30 166 H 4.9565 5.1329 -3.4011 0
M  V30 167 H 4.7728 4.3683 -4.9813 0
M  V30 168 H 2.2997 4.3231 -4.6900 0
M  V30 END ATOM
M  V30 BEGIN BOND
M  V30 1 1 139 143
M  V30 2 1 160 165
M  V30 3 1 124 129
M  V30 4 1 139 144
M  V30 5 1 160 164
M  V30 6 1 124 128
M  V30 7 1 142 146
M  V30 8 1 157 162
M  V30 9 1 121 126
M  V30 10 1 139 142
M  V30 11 1 137 139
M  V30 12 1 157 160
M  V30 13 1 160 163
M  V30 14 1 121 124
M  V30 15 1 124 127
M  V30 16 1 145 148
M  V30 17 1 155 159
M  V30 18 1 119 123
M  V30 19 1 137 140
M  V30 20 1 134 138
M  V30 21 1 142 145
M  V30 22 1 142 147
M  V30 23 1 151 168
M  V30 24 1 127 131
M  V30 25 1 163 167
M  V30 26 1 115 132
M  V30 27 1 155 157
M  V30 28 1 157 161
M  V30 29 1 119 121
M  V30 30 1 121 125
M  V30 31 1 134 137
M  V30 32 1 137 141
M  V30 33 1 145 149
M  V30 34 1 133 145
M  V30 35 1 151 163
M  V30 36 1 163 166
M  V30 37 1 115 127
M  V30 38 1 127 130
M  V30 39 1 155 158
M  V30 40 1 152 155
M  V30 41 1 119 122
M  V30 42 1 116 119
M  V30 43 1 57 60
M  V30 44 1 27 30
M  V30 45 1 42 45
M  V30 46 1 133 134
M  V30 47 1 134 136
M  V30 48 1 151 152
M  V30 49 1 151 153
M  V30 50 1 115 116
M  V30 51 1 115 117
M  V30 52 1 51 53
M  V30 53 1 21 23
M  V30 54 1 36 38
M  V30 55 1 133 135
M  V30 56 1 133 150
M  V30 57 1 152 154
M  V30 58 1 152 156
M  V30 59 1 116 118
M  V30 60 1 116 120
M  V30 61 2 57 136
M  V30 62 1 49 57
M  V30 63 2 27 117
M  V30 64 1 19 27
M  V30 65 2 42 153
M  V30 66 1 34 42
M  V30 67 2 25 135
M  V30 68 2 55 154
M  V30 69 2 40 118
M  V30 70 2 49 51
M  V30 71 1 51 52
M  V30 72 2 19 21
M  V30 73 1 21 22
M  V30 74 2 34 36
M  V30 75 1 36 37
M  V30 76 1 48 49
M  V30 77 1 18 19
M  V30 78 1 33 34
M  V30 79 1 22 25
M  V30 80 1 25 28
M  V30 81 1 52 55
M  V30 82 1 55 58
M  V30 83 1 37 40
M  V30 84 1 40 43
M  V30 85 2 22 24
M  V30 86 2 52 54
M  V30 87 2 37 39
M  V30 88 1 48 50
M  V30 89 2 46 48
M  V30 90 1 18 20
M  V30 91 2 16 18
M  V30 92 1 33 35
M  V30 93 2 31 33
M  V30 94 1 46 54
M  V30 95 1 54 56
M  V30 96 1 16 24
M  V30 97 1 24 26
M  V30 98 1 31 39
M  V30 99 1 39 41
M  V30 100 1 46 47
M  V30 101 1 16 17
M  V30 102 1 31 32
M  V30 103 1 47 59
M  V30 104 2 47 100
M  V30 105 1 17 29
M  V30 106 2 17 64
M  V30 107 1 32 44
M  V30 108 2 32 82
M  V30 109 1 98 100
M  V30 110 1 62 64
M  V30 111 1 80 82
M  V30 112 1 101 104
M  V30 113 1 65 68
M  V30 114 1 83 86
M  V30 115 1 101 105
M  V30 116 1 65 69
M  V30 117 1 83 87
M  V30 118 1 98 101
M  V30 119 1 98 102
M  V30 120 1 97 98
M  V30 121 1 62 65
M  V30 122 1 62 66
M  V30 123 1 61 62
M  V30 124 1 80 83
M  V30 125 1 80 84
M  V30 126 1 79 80
M  V30 127 1 101 103
M  V30 128 1 65 67
M  V30 129 1 83 85
M  V30 130 1 2 14
M  V30 131 1 12 15
M  V30 132 1 10 13
M  V30 133 1 3 5
M  V30 134 1 3 4
M  V30 135 2 1 3
M  V30 136 2 4 6
M  V30 137 1 4 12
M  V30 138 1 1 9
M  V30 139 1 1 2
M  V30 140 1 6 7
M  V30 141 1 6 8
M  V30 142 2 7 9
M  V30 143 1 9 11
M  V30 144 1 7 10
M  V30 145 2 12 99
M  V30 146 2 2 63
M  V30 147 2 10 81
M  V30 148 1 97 114
M  V30 149 1 61 78
M  V30 150 1 79 96
M  V30 151 1 97 99
M  V30 152 1 61 63
M  V30 153 1 79 81
M  V30 154 1 97 109
M  V30 155 1 61 73
M  V30 156 1 79 91
M  V30 157 1 103 108
M  V30 158 1 103 107
M  V30 159 1 103 106
M  V30 160 1 67 72
M  V30 161 1 67 71
M  V30 162 1 67 70
M  V30 163 1 85 90
M  V30 164 1 85 89
M  V30 165 1 85 88
M  V30 166 1 106 111
M  V30 167 1 70 75
M  V30 168 1 106 109
M  V30 169 1 109 112
M  V30 170 1 109 113
M  V30 171 1 70 73
M  V30 172 1 73 76
M  V30 173 1 73 77
M  V30 174 1 88 93
M  V30 175 1 88 91
M  V30 176 1 91 94
M  V30 177 1 91 95
M  V30 178 1 106 110
M  V30 179 1 70 74
M  V30 180 1 88 92
M  V30 END BOND
M  V30 END CTAB
M  END

$$$$
