
     RDKit          3D

  0  0  0  0  0  0  0  0  0  0999 V3000
M  V30 BEGIN CTAB
M  V30 COUNTS 168 180 0 0 0
M  V30 BEGIN ATOM
M  V30 1 C -0.8506 -0.7722 4.0836 0
M  V30 2 C -2.2218 -1.2398 4.2294 0
M  V30 3 C -0.5595 0.5817 4.2000 0
M  V30 4 C 0.7550 1.0375 4.1008 0
M  V30 5 H -1.3387 1.3057 4.3831 0
M  V30 6 C 1.7774 0.1241 3.8732 0
M  V30 7 C 1.5006 -1.2379 3.7542 0
M  V30 8 H 2.8052 0.4450 3.7981 0
M  V30 9 C 0.1860 -1.6772 3.8552 0
M  V30 10 C 2.5782 -2.1969 3.5563 0
M  V30 11 H -0.0594 -2.7251 3.7739 0
M  V30 12 C 1.0615 2.4517 4.2637 0
M  V30 13 H 2.2655 -3.2262 3.3212 0
M  V30 14 H -2.9946 -0.4559 4.2548 0
M  V30 15 H 2.0937 2.7486 4.0214 0
M  V30 16 C -3.3501 -2.5692 -0.0457 0
M  V30 17 C -3.3944 -3.3242 1.1985 0
M  V30 18 C -2.6501 -3.0673 -1.1381 0
M  V30 19 C -2.6323 -2.3733 -2.3480 0
M  V30 20 H -2.1189 -4.0050 -1.0793 0
M  V30 21 C -3.3150 -1.1673 -2.4516 0
M  V30 22 C -4.0220 -0.6548 -1.3637 0
M  V30 23 H -3.3255 -0.6101 -3.3758 0
M  V30 24 C -4.0309 -1.3575 -0.1647 0
M  V30 25 C -4.7694 0.5886 -1.4879 0
M  V30 26 H -4.5738 -0.9903 0.6928 0
M  V30 27 C -1.9317 -2.9183 -3.5022 0
M  V30 28 H -5.1695 1.0025 -0.5493 0
M  V30 29 H -2.7108 -4.1853 1.2596 0
M  V30 30 H -1.8349 -2.2428 -4.3663 0
M  V30 31 C 3.9636 -1.3594 -0.7677 0
M  V30 32 C 4.7376 -1.3651 0.4655 0
M  V30 33 C 3.9819 -0.2437 -1.5962 0
M  V30 34 C 3.2765 -0.2398 -2.7995 0
M  V30 35 H 4.5512 0.6352 -1.3351 0
M  V30 36 C 2.5421 -1.3625 -3.1622 0
M  V30 37 C 2.5142 -2.4897 -2.3410 0
M  V30 38 H 1.9911 -1.3926 -4.0897 0
M  V30 39 C 3.2221 -2.4791 -1.1450 0
M  V30 40 C 1.7765 -3.6790 -2.7431 0
M  V30 41 H 3.2253 -3.3380 -0.4914 0
M  V30 42 C 3.3310 0.9155 -3.6841 0
M  V30 43 H 1.6769 -4.4626 -1.9762 0
M  V30 44 H 5.1671 -0.3964 0.7648 0
M  V30 45 H 2.6296 0.9022 -4.5328 0
M  V30 46 C -0.6577 4.3584 0.4266 0
M  V30 47 C -0.9326 4.6783 1.8203 0
M  V30 48 C -1.7032 4.0578 -0.4382 0
M  V30 49 C -1.4571 3.7880 -1.7845 0
M  V30 50 H -2.7253 4.0406 -0.0924 0
M  V30 51 C -0.1502 3.8116 -2.2562 0
M  V30 52 C 0.9095 4.1116 -1.3999 0
M  V30 53 H 0.0718 3.6134 -3.2936 0
M  V30 54 C 0.6491 4.3785 -0.0611 0
M  V30 55 C 2.2732 4.1751 -1.9062 0
M  V30 56 H 1.4467 4.6201 0.6246 0
M  V30 57 C -2.5587 3.5136 -2.6963 0
M  V30 58 H 3.0631 4.2638 -1.1441 0
M  V30 59 H -1.9632 4.4904 2.1595 0
M  V30 60 H -2.2732 3.1605 -3.6994 0
M  V30 61 C -3.8547 -2.8832 4.5107 0
M  V30 62 C -4.2166 -3.8049 3.3285 0
M  V30 63 N -2.4983 -2.4639 4.3484 0
M  V30 64 N -4.1878 -3.0255 2.1312 0
M  V30 65 C -5.6292 -4.3639 3.5189 0
M  V30 66 H -3.4840 -4.6320 3.3006 0
M  V30 67 C -5.7443 -5.1233 4.8349 0
M  V30 68 H -5.8642 -5.0196 2.6777 0
M  V30 69 H -6.3340 -3.5308 3.5011 0
M  V30 70 C -5.3839 -4.2139 6.0048 0
M  V30 71 H -5.0676 -5.9809 4.8203 0
M  V30 72 H -6.7621 -5.5004 4.9526 0
M  V30 73 C -3.9776 -3.6547 5.8275 0
M  V30 74 H -5.4418 -4.7692 6.9431 0
M  V30 75 H -6.0992 -3.3898 6.0572 0
M  V30 76 H -3.2474 -4.4657 5.8203 0
M  V30 77 H -3.7263 -2.9846 6.6524 0
M  V30 78 H -4.5548 -2.0282 4.5071 0
M  V30 79 C 4.8192 -2.8452 3.4955 0
M  V30 80 C 5.7107 -2.3888 2.3228 0
M  V30 81 N 3.7898 -1.8708 3.6768 0
M  V30 82 N 4.9262 -2.4203 1.1288 0
M  V30 83 C 6.8911 -3.3506 2.1625 0
M  V30 84 H 6.0802 -1.3718 2.5475 0
M  V30 85 C 7.7081 -3.4325 3.4460 0
M  V30 86 H 7.5144 -3.0072 1.3341 0
M  V30 87 H 6.4995 -4.3352 1.9011 0
M  V30 88 C 6.8274 -3.8810 4.6074 0
M  V30 89 H 8.1323 -2.4511 3.6704 0
M  V30 90 H 8.5349 -4.1328 3.3101 0
M  V30 91 C 5.6508 -2.9281 4.7784 0
M  V30 92 H 7.4106 -3.9124 5.5299 0
M  V30 93 H 6.4539 -4.8886 4.4112 0
M  V30 94 H 6.0090 -1.9262 5.0213 0
M  V30 95 H 5.0057 -3.2604 5.5946 0
M  V30 96 H 4.4073 -3.8402 3.2475 0
M  V30 97 C 0.5475 4.6511 4.8510 0
M  V30 98 C -0.3669 5.4883 3.9341 0
M  V30 99 N 0.2038 3.2741 4.6842 0
M  V30 100 N -0.0517 5.1671 2.5779 0
M  V30 101 C -0.1054 6.9797 4.1610 0
M  V30 102 H -1.4165 5.2471 4.1824 0
M  V30 103 C -0.3304 7.3588 5.6196 0
M  V30 104 H -0.7668 7.5556 3.5102 0
M  V30 105 H 0.9236 7.1968 3.8692 0
M  V30 106 C 0.5712 6.5297 6.5279 0
M  V30 107 H -1.3752 7.1803 5.8847 0
M  V30 108 H -0.1258 8.4224 5.7575 0
M  V30 109 C 0.3165 5.0430 6.3130 0
M  V30 110 H 0.3876 6.7856 7.5733 0
M  V30 111 H 1.6166 6.7556 6.3052 0
M  V30 112 H -0.7130 4.7946 6.5769 0
M  V30 113 H 0.9778 4.4468 6.9455 0
M  V30 114 H 1.5965 4.8524 4.5672 0
M  V30 115 C -0.8274 -4.6068 -4.6751 0
M  V30 116 C 0.6079 -5.0005 -4.2711 0
M  V30 117 N -1.4919 -4.0995 -3.5164 0
M  V30 118 N 1.3092 -3.8100 -3.9064 0
M  V30 119 C 1.3226 -5.6495 -5.4594 0
M  V30 120 H 0.5447 -5.7164 -3.4316 0
M  V30 121 C 0.5597 -6.8715 -5.9558 0
M  V30 122 H 2.3328 -5.9287 -5.1523 0
M  V30 123 H 1.4076 -4.9084 -6.2561 0
M  V30 124 C -0.8608 -6.4843 -6.3531 0
M  V30 125 H 0.5227 -7.6235 -5.1643 0
M  V30 126 H 1.0822 -7.3077 -6.8096 0
M  V30 127 C -1.5831 -5.8408 -5.1759 0
M  V30 128 H -1.4119 -7.3673 -6.6828 0
M  V30 129 H -0.8248 -5.7796 -7.1872 0
M  V30 130 H -1.6674 -6.5506 -4.3513 0
M  V30 131 H -2.5928 -5.5412 -5.4649 0
M  V30 132 H -0.7635 -3.8512 -5.4790 0
M  V30 133 C -5.7232 2.3465 -2.6910 0
M  V30 134 C -4.8141 3.4381 -3.2913 0
M  V30 135 N -4.9676 1.1367 -2.6056 0
M  V30 136 N -3.7600 3.6987 -2.3626 0
M  V30 137 C -5.6163 4.7254 -3.5004 0
M  V30 138 H -4.4297 3.0711 -4.2603 0
M  V30 139 C -6.8169 4.4808 -4.4062 0
M  V30 140 H -4.9591 5.4827 -3.9332 0
M  V30 141 H -5.9469 5.0867 -2.5250 0
M  V30 142 C -7.7153 3.3996 -3.8152 0
M  V30 143 H -6.4699 4.1649 -5.3927 0
M  V30 144 H -7.3783 5.4093 -4.5290 0
M  V30 145 C -6.9277 2.1121 -3.6067 0
M  V30 146 H -8.5599 3.2089 -4.4803 0
M  V30 147 H -8.1127 3.7421 -2.8569 0
M  V30 148 H -6.5638 1.7332 -4.5633 0
M  V30 149 H -7.5631 1.3434 -3.1617 0
M  V30 150 H -6.0650 2.6911 -1.6982 0
M  V30 151 C 4.1903 2.9630 -4.4022 0
M  V30 152 C 3.8759 4.2429 -3.6014 0
M  V30 153 N 4.1516 1.8546 -3.5013 0
M  V30 154 N 2.5258 4.1586 -3.1410 0
M  V30 155 C 4.0122 5.4695 -4.5076 0
M  V30 156 H 4.5944 4.3101 -2.7643 0
M  V30 157 C 5.4097 5.5526 -5.1091 0
M  V30 158 H 3.7945 6.3652 -3.9219 0
M  V30 159 H 3.2645 5.3969 -5.2992 0
M  V30 160 C 5.7232 4.2865 -5.8990 0
M  V30 161 H 6.1437 5.6718 -4.3087 0
M  V30 162 H 5.4771 6.4269 -5.7597 0
M  V30 163 C 5.5944 3.0592 -5.0053 0
M  V30 164 H 6.7350 4.3390 -6.3058 0
M  V30 165 H 5.0278 4.2006 -6.7373 0
M  V30 166 H 6.3167 3.1097 -4.1886 0
M  V30 167 H 5.7954 2.1492 -5.5747 0
M  V30 168 H 3.4392 2.8678 -5.2072 0
M  V30 END ATOM
M  V30 BEGIN BOND
M  V30 1 1 139 143
M  V30 2 1 160 165
M  V30 3 1 124 129
M  V30 4 1 139 144
M  V30 5 1 160 164
M  V30 6 1 124 128
M  V30 7 1 142 146
M  V30 8 1 157 162
M  V30 9 1 121 126
M  V30 10 1 139 142
M  V30 11 1 137 139
M  V30 12 1 157 160
M  V30 13 1 160 163
M  V30 14 1 121 124
M  V30 15 1 124 127
M  V30 16 1 145 148
M  V30 17 1 155 159
M  V30 18 1 119 123
M  V30 19 1 137 140
M  V30 20 1 134 138
M  V30 21 1 142 145
M  V30 22 1 142 147
M  V30 23 1 151 168
M  V30 24 1 127 131
M  V30 25 1 163 167
M  V30 26 1 115 132
M  V30 27 1 155 157
M  V30 28 1 157 161
M  V30 29 1 119 121
M  V30 30 1 121 125
M  V30 31 1 134 137
M  V30 32 1 137 141
M  V30 33 1 145 149
M  V30 34 1 133 145
M  V30 35 1 151 163
M  V30 36 1 163 166
M  V30 37 1 115 127
M  V30 38 1 127 130
M  V30 39 1 155 158
M  V30 40 1 152 155
M  V30 41 1 119 122
M  V30 42 1 116 119
M  V30 43 1 57 60
M  V30 44 1 27 30
M  V30 45 1 42 45
M  V30 46 1 133 134
M  V30 47 1 134 136
M  V30 48 1 151 152
M  V30 49 1 151 153
M  V30 50 1 115 116
M  V30 51 1 115 117
M  V30 52 1 51 53
M  V30 53 1 21 23
M  V30 54 1 36 38
M  V30 55 1 133 135
M  V30 56 1 133 150
M  V30 57 1 152 154
M  V30 58 1 152 156
M  V30 59 1 116 118
M  V30 60 1 116 120
M  V30 61 2 57 136
M  V30 62 1 49 57
M  V30 63 2 27 117
M  V30 64 1 19 27
M  V30 65 2 42 153
M  V30 66 1 34 42
M  V30 67 2 25 135
M  V30 68 2 55 154
M  V30 69 2 40 118
M  V30 70 2 49 51
M  V30 71 1 51 52
M  V30 72 2 19 21
M  V30 73 1 21 22
M  V30 74 2 34 36
M  V30 75 1 36 37
M  V30 76 1 48 49
M  V30 77 1 18 19
M  V30 78 1 33 34
M  V30 79 1 22 25
M  V30 80 1 25 28
M  V30 81 1 52 55
M  V30 82 1 55 58
M  V30 83 1 37 40
M  V30 84 1 40 43
M  V30 85 2 22 24
M  V30 86 2 52 54
M  V30 87 2 37 39
M  V30 88 1 48 50
M  V30 89 2 46 48
M  V30 90 1 18 20
M  V30 91 2 16 18
M  V30 92 1 33 35
M  V30 93 2 31 33
M  V30 94 1 46 54
M  V30 95 1 54 56
M  V30 96 1 16 24
M  V30 97 1 24 26
M  V30 98 1 31 39
M  V30 99 1 39 41
M  V30 100 1 46 47
M  V30 101 1 16 17
M  V30 102 1 31 32
M  V30 103 1 47 59
M  V30 104 2 47 100
M  V30 105 1 17 29
M  V30 106 2 17 64
M  V30 107 1 32 44
M  V30 108 2 32 82
M  V30 109 1 98 100
M  V30 110 1 62 64
M  V30 111 1 80 82
M  V30 112 1 101 104
M  V30 113 1 65 68
M  V30 114 1 83 86
M  V30 115 1 101 105
M  V30 116 1 65 69
M  V30 117 1 83 87
M  V30 118 1 98 101
M  V30 119 1 98 102
M  V30 120 1 97 98
M  V30 121 1 62 65
M  V30 122 1 62 66
M  V30 123 1 61 62
M  V30 124 1 80 83
M  V30 125 1 80 84
M  V30 126 1 79 80
M  V30 127 1 101 103
M  V30 128 1 65 67
M  V30 129 1 83 85
M  V30 130 1 2 14
M  V30 131 1 12 15
M  V30 132 1 10 13
M  V30 133 1 3 5
M  V30 134 1 3 4
M  V30 135 2 1 3
M  V30 136 2 4 6
M  V30 137 1 4 12
M  V30 138 1 1 9
M  V30 139 1 1 2
M  V30 140 1 6 7
M  V30 141 1 6 8
M  V30 142 2 7 9
M  V30 143 1 9 11
M  V30 144 1 7 10
M  V30 145 2 12 99
M  V30 146 2 2 63
M  V30 147 2 10 81
M  V30 148 1 97 114
M  V30 149 1 61 78
M  V30 150 1 79 96
M  V30 151 1 97 99
M  V30 152 1 61 63
M  V30 153 1 79 81
M  V30 154 1 97 109
M  V30 155 1 61 73
M  V30 156 1 79 91
M  V30 157 1 103 108
M  V30 158 1 103 107
M  V30 159 1 103 106
M  V30 160 1 67 72
M  V30 161 1 67 71
M  V30 162 1 67 70
M  V30 163 1 85 90
M  V30 164 1 85 89
M  V30 165 1 85 88
M  V30 166 1 106 111
M  V30 167 1 70 75
M  V30 168 1 106 109
M  V30 169 1 109 112
M  V30 170 1 109 113
M  V30 171 1 70 73
M  V30 172 1 73 76
M  V30 173 1 73 77
M  V30 174 1 88 93
M  V30 175 1 88 91
M  V30 176 1 91 94
M  V30 177 1 91 95
M  V30 178 1 106 110
M  V30 179 1 70 74
M  V30 180 1 88 92
M  V30 END BOND
M  V30 END CTAB
M  END

$$$$
