
     RDKit          3D

  0  0  0  0  0  0  0  0  0  0999 V3000
M  V30 BEGIN CTAB
M  V30 COUNTS 168 180 0 0 0
M  V30 BEGIN ATOM
M  V30 1 C -0.8781 0.6765 4.0590 0
M  V30 2 C -2.3226 0.7659 4.2180 0
M  V30 3 C -0.1266 1.8275 3.8543 0
M  V30 4 C 1.2619 1.7590 3.7393 0
M  V30 5 H -0.5969 2.7970 3.7944 0
M  V30 6 C 1.8921 0.5231 3.8211 0
M  V30 7 C 1.1510 -0.6407 4.0262 0
M  V30 8 H 2.9652 0.4382 3.7423 0
M  V30 9 C -0.2316 -0.5570 4.1390 0
M  V30 10 C 1.8176 -1.9291 4.1521 0
M  V30 11 H -0.8319 -1.4385 4.3044 0
M  V30 12 C 2.0499 2.9711 3.5656 0
M  V30 13 H 1.1576 -2.8105 4.1595 0
M  V30 14 H -2.7693 1.7464 3.9912 0
M  V30 15 H 3.1152 2.8198 3.3316 0
M  V30 16 C -3.9378 -1.1507 0.3404 0
M  V30 17 C -4.2184 -1.4943 1.7272 0
M  V30 18 C -3.4814 -2.1246 -0.5398 0
M  V30 19 C -3.2462 -1.8180 -1.8801 0
M  V30 20 H -3.3132 -3.1386 -0.2107 0
M  V30 21 C -3.4627 -0.5212 -2.3303 0
M  V30 22 C -3.9207 0.4669 -1.4586 0
M  V30 23 H -3.2961 -0.2542 -3.3626 0
M  V30 24 C -4.1508 0.1466 -0.1259 0
M  V30 25 C -4.1849 1.8145 -1.9427 0
M  V30 26 H -4.5112 0.8874 0.5714 0
M  V30 27 C -2.8072 -2.8504 -2.8082 0
M  V30 28 H -4.3936 2.5690 -1.1684 0
M  V30 29 H -3.8806 -2.4912 2.0504 0
M  V30 30 H -2.4972 -2.4981 -3.8043 0
M  V30 31 C 3.3165 -2.7717 -0.1329 0
M  V30 32 C 4.0650 -2.7247 1.1150 0
M  V30 33 C 3.7087 -1.9860 -1.2102 0
M  V30 34 C 3.0243 -2.0505 -2.4239 0
M  V30 35 H 4.5564 -1.3222 -1.1365 0
M  V30 36 C 1.9341 -2.9036 -2.5467 0
M  V30 37 C 1.5287 -3.6982 -1.4742 0
M  V30 38 H 1.3881 -2.9807 -3.4744 0
M  V30 39 C 2.2204 -3.6234 -0.2710 0
M  V30 40 C 0.4112 -4.6204 -1.6187 0
M  V30 41 H 1.9349 -4.2300 0.5748 0
M  V30 42 C 3.4631 -1.2562 -3.5626 0
M  V30 43 H 0.0584 -5.0943 -0.6895 0
M  V30 44 H 4.8143 -1.9217 1.1931 0
M  V30 45 H 2.7840 -1.2459 -4.4293 0
M  V30 46 C 1.0306 4.2912 -0.7394 0
M  V30 47 C 0.9157 5.0355 0.5067 0
M  V30 48 C -0.0720 4.1570 -1.5747 0
M  V30 49 C 0.0345 3.4800 -2.7897 0
M  V30 50 H -1.0271 4.5840 -1.3099 0
M  V30 51 C 1.2557 2.9280 -3.1571 0
M  V30 52 C 2.3711 3.0544 -2.3289 0
M  V30 53 H 1.3715 2.4039 -4.0935 0
M  V30 54 C 2.2500 3.7317 -1.1215 0
M  V30 55 C 3.6588 2.5097 -2.7357 0
M  V30 56 H 3.0961 3.8518 -0.4623 0
M  V30 57 C -1.1123 3.3768 -3.6809 0
M  V30 58 H 4.4454 2.5144 -1.9651 0
M  V30 59 H -0.1076 5.3097 0.8071 0
M  V30 60 H -0.9910 2.7000 -4.5408 0
M  V30 61 C -4.4232 -0.0799 4.7825 0
M  V30 62 C -5.1116 -1.0925 3.8450 0
M  V30 63 N -3.0098 -0.2120 4.6186 0
M  V30 64 N -4.8358 -0.7094 2.4963 0
M  V30 65 C -6.6261 -1.0597 4.0668 0
M  V30 66 H -4.7178 -2.0987 4.0772 0
M  V30 67 C -6.9730 -1.3642 5.5190 0
M  V30 68 H -7.0948 -1.7878 3.4014 0
M  V30 69 H -6.9927 -0.0694 3.7910 0
M  V30 70 C -6.2907 -0.3654 6.4476 0
M  V30 71 H -6.6421 -2.3752 5.7677 0
M  V30 72 H -8.0557 -1.3224 5.6536 0
M  V30 73 C -4.7817 -0.3925 6.2379 0
M  V30 74 H -6.5203 -0.6034 7.4881 0
M  V30 75 H -6.6688 0.6386 6.2410 0
M  V30 76 H -4.3840 -1.3780 6.4859 0
M  V30 77 H -4.2930 0.3389 6.8852 0
M  V30 78 H -4.7774 0.9322 4.5152 0
M  V30 79 C 3.6850 -3.3035 4.4164 0
M  V30 80 C 4.6548 -3.5032 3.2340 0
M  V30 81 N 3.0687 -2.0222 4.2742 0
M  V30 82 N 3.8842 -3.5700 2.0325 0
M  V30 83 C 5.4174 -4.8200 3.4043 0
M  V30 84 H 5.3635 -2.6553 3.2237 0
M  V30 85 C 6.1805 -4.8436 4.7229 0
M  V30 86 H 6.1038 -4.9399 2.5634 0
M  V30 87 H 4.6987 -5.6406 3.3695 0
M  V30 88 C 5.2233 -4.6433 5.8930 0
M  V30 89 H 6.9277 -4.0467 4.7250 0
M  V30 90 H 6.7047 -5.7960 4.8259 0
M  V30 91 C 4.4614 -3.3332 5.7357 0
M  V30 92 H 5.7776 -4.6342 6.8336 0
M  V30 93 H 4.5149 -5.4741 5.9283 0
M  V30 94 H 5.1544 -2.4902 5.7458 0
M  V30 95 H 3.7582 -3.1989 6.5605 0
M  V30 96 H 2.9440 -4.1231 4.3956 0
M  V30 97 C 2.3559 5.2846 3.5466 0
M  V30 98 C 1.7753 6.1182 2.3864 0
M  V30 99 N 1.5459 4.1180 3.7046 0
M  V30 100 N 1.9282 5.3684 1.1796 0
M  V30 101 C 2.5499 7.4320 2.2520 0
M  V30 102 H 0.7136 6.3273 2.6109 0
M  V30 103 C 2.5040 8.2293 3.5496 0
M  V30 104 H 2.1199 8.0114 1.4322 0
M  V30 105 H 3.5830 7.1969 1.9900 0
M  V30 106 C 3.0752 7.4053 4.6986 0
M  V30 107 H 1.4692 8.4977 3.7751 0
M  V30 108 H 3.0728 9.1538 3.4319 0
M  V30 109 C 2.3088 6.0965 4.8439 0
M  V30 110 H 3.0157 7.9702 5.6310 0
M  V30 111 H 4.1282 7.1905 4.5022 0
M  V30 112 H 1.2637 6.2962 5.0868 0
M  V30 113 H 2.7312 5.4941 5.6511 0
M  V30 114 H 3.4022 5.0305 3.2977 0
M  V30 115 C -2.3933 -5.0586 -3.4398 0
M  V30 116 C -1.1803 -5.8047 -2.8482 0
M  V30 117 N -2.8118 -4.0714 -2.4953 0
M  V30 118 N -0.0971 -4.8785 -2.7429 0
M  V30 119 C -0.7653 -6.9446 -3.7823 0
M  V30 120 H -1.4735 -6.2112 -1.8633 0
M  V30 121 C -1.9200 -7.9120 -4.0115 0
M  V30 122 H 0.0882 -7.4657 -3.3434 0
M  V30 123 H -0.4419 -6.5117 -4.7306 0
M  V30 124 C -3.1214 -7.1752 -4.5939 0
M  V30 125 H -2.2025 -8.3726 -3.0620 0
M  V30 126 H -1.6029 -8.7070 -4.6895 0
M  V30 127 C -3.5456 -6.0404 -3.6697 0
M  V30 128 H -3.9550 -7.8667 -4.7314 0
M  V30 129 H -2.8574 -6.7678 -5.5726 0
M  V30 130 H -3.8567 -6.4381 -2.7022 0
M  V30 131 H -4.3911 -5.4963 -4.0961 0
M  V30 132 H -2.0847 -4.6071 -4.4002 0
M  V30 133 C -4.4842 3.4180 -3.6119 0
M  V30 134 C -3.2621 3.9334 -4.3987 0
M  V30 135 N -4.2013 2.0879 -3.1731 0
M  V30 136 N -2.1641 4.0450 -3.4912 0
M  V30 137 C -3.5640 5.3175 -4.9797 0
M  V30 138 H -3.0523 3.2187 -5.2152 0
M  V30 139 C -4.7929 5.2769 -5.8797 0
M  V30 140 H -2.6917 5.6616 -5.5395 0
M  V30 141 H -3.7254 6.0101 -4.1518 0
M  V30 142 C -6.0016 4.7648 -5.1037 0
M  V30 143 H -4.6005 4.6166 -6.7285 0
M  V30 144 H -4.9940 6.2764 -6.2704 0
M  V30 145 C -5.7134 3.3854 -4.5242 0
M  V30 146 H -6.8733 4.7122 -5.7591 0
M  V30 147 H -6.2324 5.4591 -4.2924 0
M  V30 148 H -5.5267 2.6703 -5.3273 0
M  V30 149 H -6.5691 3.0266 -3.9483 0
M  V30 150 H -4.6615 4.1040 -2.7638 0
M  V30 151 C 4.9728 0.1081 -4.7054 0
M  V30 152 C 5.1462 1.5786 -4.2743 0
M  V30 153 N 4.5655 -0.6452 -3.5616 0
M  V30 154 N 3.8630 2.0878 -3.9057 0
M  V30 155 C 5.6863 2.4033 -5.4459 0
M  V30 156 H 5.8601 1.6078 -3.4311 0
M  V30 157 C 7.0103 1.8400 -5.9470 0
M  V30 158 H 5.8104 3.4381 -5.1195 0
M  V30 159 H 4.9441 2.3911 -6.2459 0
M  V30 160 C 6.8411 0.3851 -6.3711 0
M  V30 161 H 7.7562 1.9013 -5.1510 0
M  V30 162 H 7.3673 2.4369 -6.7886 0
M  V30 163 C 6.3076 -0.4461 -5.2109 0
M  V30 164 H 7.7977 -0.0223 -6.7043 0
M  V30 165 H 6.1423 0.3306 -7.2091 0
M  V30 166 H 7.0186 -0.4386 -4.3830 0
M  V30 167 H 6.1632 -1.4839 -5.5191 0
M  V30 168 H 4.2192 0.0731 -5.5130 0
M  V30 END ATOM
M  V30 BEGIN BOND
M  V30 1 1 139 143
M  V30 2 1 160 165
M  V30 3 1 124 129
M  V30 4 1 139 144
M  V30 5 1 160 164
M  V30 6 1 124 128
M  V30 7 1 142 146
M  V30 8 1 157 162
M  V30 9 1 121 126
M  V30 10 1 139 142
M  V30 11 1 137 139
M  V30 12 1 157 160
M  V30 13 1 160 163
M  V30 14 1 121 124
M  V30 15 1 124 127
M  V30 16 1 145 148
M  V30 17 1 155 159
M  V30 18 1 119 123
M  V30 19 1 137 140
M  V30 20 1 134 138
M  V30 21 1 142 145
M  V30 22 1 142 147
M  V30 23 1 151 168
M  V30 24 1 127 131
M  V30 25 1 163 167
M  V30 26 1 115 132
M  V30 27 1 155 157
M  V30 28 1 157 161
M  V30 29 1 119 121
M  V30 30 1 121 125
M  V30 31 1 134 137
M  V30 32 1 137 141
M  V30 33 1 145 149
M  V30 34 1 133 145
M  V30 35 1 151 163
M  V30 36 1 163 166
M  V30 37 1 115 127
M  V30 38 1 127 130
M  V30 39 1 155 158
M  V30 40 1 152 155
M  V30 41 1 119 122
M  V30 42 1 116 119
M  V30 43 1 57 60
M  V30 44 1 27 30
M  V30 45 1 42 45
M  V30 46 1 133 134
M  V30 47 1 134 136
M  V30 48 1 151 152
M  V30 49 1 151 153
M  V30 50 1 115 116
M  V30 51 1 115 117
M  V30 52 1 51 53
M  V30 53 1 21 23
M  V30 54 1 36 38
M  V30 55 1 133 135
M  V30 56 1 133 150
M  V30 57 1 152 154
M  V30 58 1 152 156
M  V30 59 1 116 118
M  V30 60 1 116 120
M  V30 61 2 57 136
M  V30 62 1 49 57
M  V30 63 2 27 117
M  V30 64 1 19 27
M  V30 65 2 42 153
M  V30 66 1 34 42
M  V30 67 2 25 135
M  V30 68 2 55 154
M  V30 69 2 40 118
M  V30 70 2 49 51
M  V30 71 1 51 52
M  V30 72 2 19 21
M  V30 73 1 21 22
M  V30 74 2 34 36
M  V30 75 1 36 37
M  V30 76 1 48 49
M  V30 77 1 18 19
M  V30 78 1 33 34
M  V30 79 1 22 25
M  V30 80 1 25 28
M  V30 81 1 52 55
M  V30 82 1 55 58
M  V30 83 1 37 40
M  V30 84 1 40 43
M  V30 85 2 22 24
M  V30 86 2 52 54
M  V30 87 2 37 39
M  V30 88 1 48 50
M  V30 89 2 46 48
M  V30 90 1 18 20
M  V30 91 2 16 18
M  V30 92 1 33 35
M  V30 93 2 31 33
M  V30 94 1 46 54
M  V30 95 1 54 56
M  V30 96 1 16 24
M  V30 97 1 24 26
M  V30 98 1 31 39
M  V30 99 1 39 41
M  V30 100 1 46 47
M  V30 101 1 16 17
M  V30 102 1 31 32
M  V30 103 1 47 59
M  V30 104 2 47 100
M  V30 105 1 17 29
M  V30 106 2 17 64
M  V30 107 1 32 44
M  V30 108 2 32 82
M  V30 109 1 98 100
M  V30 110 1 62 64
M  V30 111 1 80 82
M  V30 112 1 101 104
M  V30 113 1 65 68
M  V30 114 1 83 86
M  V30 115 1 101 105
M  V30 116 1 65 69
M  V30 117 1 83 87
M  V30 118 1 98 101
M  V30 119 1 98 102
M  V30 120 1 97 98
M  V30 121 1 62 65
M  V30 122 1 62 66
M  V30 123 1 61 62
M  V30 124 1 80 83
M  V30 125 1 80 84
M  V30 126 1 79 80
M  V30 127 1 101 103
M  V30 128 1 65 67
M  V30 129 1 83 85
M  V30 130 1 2 14
M  V30 131 1 12 15
M  V30 132 1 10 13
M  V30 133 1 3 5
M  V30 134 1 3 4
M  V30 135 2 1 3
M  V30 136 2 4 6
M  V30 137 1 4 12
M  V30 138 1 1 9
M  V30 139 1 1 2
M  V30 140 1 6 7
M  V30 141 1 6 8
M  V30 142 2 7 9
M  V30 143 1 9 11
M  V30 144 1 7 10
M  V30 145 2 12 99
M  V30 146 2 2 63
M  V30 147 2 10 81
M  V30 148 1 97 114
M  V30 149 1 61 78
M  V30 150 1 79 96
M  V30 151 1 97 99
M  V30 152 1 61 63
M  V30 153 1 79 81
M  V30 154 1 97 109
M  V30 155 1 61 73
M  V30 156 1 79 91
M  V30 157 1 103 108
M  V30 158 1 103 107
M  V30 159 1 103 106
M  V30 160 1 67 72
M  V30 161 1 67 71
M  V30 162 1 67 70
M  V30 163 1 85 90
M  V30 164 1 85 89
M  V30 165 1 85 88
M  V30 166 1 106 111
M  V30 167 1 70 75
M  V30 168 1 106 109
M  V30 169 1 109 112
M  V30 170 1 109 113
M  V30 171 1 70 73
M  V30 172 1 73 76
M  V30 173 1 73 77
M  V30 174 1 88 93
M  V30 175 1 88 91
M  V30 176 1 91 94
M  V30 177 1 91 95
M  V30 178 1 106 110
M  V30 179 1 70 74
M  V30 180 1 88 92
M  V30 END BOND
M  V30 END CTAB
M  END

$$$$
