
     RDKit          3D

  0  0  0  0  0  0  0  0  0  0999 V3000
M  V30 BEGIN CTAB
M  V30 COUNTS 168 180 0 0 0
M  V30 BEGIN ATOM
M  V30 1 C 2.9545 -1.9090 -2.6035 0
M  V30 2 C 2.5618 -3.1635 -3.2297 0
M  V30 3 C 3.5809 -1.9150 -1.3630 0
M  V30 4 C 3.9966 -0.7225 -0.7706 0
M  V30 5 H 3.7716 -2.8391 -0.8393 0
M  V30 6 C 3.7699 0.4803 -1.4286 0
M  V30 7 C 3.1423 0.5021 -2.6743 0
M  V30 8 H 4.0855 1.4189 -0.9992 0
M  V30 9 C 2.7336 -0.6939 -3.2521 0
M  V30 10 C 2.9425 1.7601 -3.3797 0
M  V30 11 H 2.2512 -0.7105 -4.2176 0
M  V30 12 C 4.6890 -0.7355 0.5103 0
M  V30 13 H 2.3088 1.7091 -4.2787 0
M  V30 14 H 2.6309 -4.0586 -2.5924 0
M  V30 15 H 4.8467 0.2483 0.9790 0
M  V30 16 C -2.0493 -3.0576 -3.0178 0
M  V30 17 C -1.1812 -3.2264 -4.1745 0
M  V30 18 C -3.0109 -2.0543 -3.0092 0
M  V30 19 C -3.8750 -1.9066 -1.9241 0
M  V30 20 H -3.1197 -1.3793 -3.8442 0
M  V30 21 C -3.7603 -2.7683 -0.8398 0
M  V30 22 C -2.7999 -3.7800 -0.8342 0
M  V30 23 H -4.4180 -2.6836 0.0116 0
M  V30 24 C -1.9461 -3.9152 -1.9224 0
M  V30 25 C -2.7093 -4.7062 0.2857 0
M  V30 26 H -1.1973 -4.6918 -1.9504 0
M  V30 27 C -4.9078 -0.8804 -1.9363 0
M  V30 28 H -1.8328 -5.3728 0.2858 0
M  V30 29 H -1.2214 -2.4207 -4.9238 0
M  V30 30 H -5.4433 -0.7288 -0.9863 0
M  V30 31 C -0.3231 3.8676 -0.8873 0
M  V30 32 C 1.0017 4.3407 -1.2628 0
M  V30 33 C -0.7040 3.8519 0.4493 0
M  V30 34 C -1.9837 3.4382 0.8192 0
M  V30 35 H -0.0262 4.1716 1.2257 0
M  V30 36 C -2.8779 3.0293 -0.1629 0
M  V30 37 C -2.5099 3.0395 -1.5084 0
M  V30 38 H -3.8770 2.7098 0.0909 0
M  V30 39 C -1.2314 3.4544 -1.8620 0
M  V30 40 C -3.4625 2.6488 -2.5380 0
M  V30 41 H -0.9192 3.4796 -2.8949 0
M  V30 42 C -2.3926 3.4619 2.2165 0
M  V30 43 H -3.0509 2.5364 -3.5530 0
M  V30 44 H 1.7055 4.5011 -0.4313 0
M  V30 45 H -3.3557 2.9780 2.4418 0
M  V30 46 C 1.3708 -1.9100 3.4977 0
M  V30 47 C 2.6625 -2.5379 3.2579 0
M  V30 48 C 0.2059 -2.6645 3.4277 0
M  V30 49 C -1.0344 -2.0842 3.6937 0
M  V30 50 H 0.2360 -3.7148 3.1813 0
M  V30 51 C -1.0991 -0.7352 4.0211 0
M  V30 52 C 0.0617 0.0350 4.0949 0
M  V30 53 H -2.0428 -0.2588 4.2383 0
M  V30 54 C 1.2904 -0.5569 3.8275 0
M  V30 55 C -0.0058 1.4383 4.4777 0
M  V30 56 H 2.2066 0.0108 3.8828 0
M  V30 57 C -2.2485 -2.8872 3.6593 0
M  V30 58 H 0.9275 2.0112 4.3628 0
M  V30 59 H 2.6285 -3.5621 2.8550 0
M  V30 60 H -3.1945 -2.3280 3.7272 0
M  V30 61 C 1.8368 -4.4729 -5.0202 0
M  V30 62 C 0.3673 -4.3853 -5.4797 0
M  V30 63 N 2.1948 -3.2197 -4.4344 0
M  V30 64 N -0.4545 -4.2461 -4.3190 0
M  V30 65 C -0.0262 -5.6716 -6.2108 0
M  V30 66 H 0.2707 -3.5198 -6.1601 0
M  V30 67 C 0.8862 -5.9231 -7.4050 0
M  V30 68 H -1.0656 -5.5878 -6.5352 0
M  V30 69 H 0.0384 -6.5018 -5.5052 0
M  V30 70 C 2.3400 -6.0071 -6.9527 0
M  V30 71 H 0.7766 -5.1081 -8.1243 0
M  V30 72 H 0.5934 -6.8506 -7.9010 0
M  V30 73 C 2.7438 -4.7297 -6.2268 0
M  V30 74 H 2.9926 -6.1606 -7.8146 0
M  V30 75 H 2.4625 -6.8609 -6.2821 0
M  V30 76 H 2.6707 -3.8740 -6.9002 0
M  V30 77 H 3.7776 -4.7972 -5.8814 0
M  V30 78 H 1.9226 -5.3058 -4.2991 0
M  V30 79 C 3.2841 4.0421 -3.7286 0
M  V30 80 C 2.6132 5.0634 -2.7876 0
M  V30 81 N 3.4869 2.8309 -2.9980 0
M  V30 82 N 1.3089 4.5788 -2.4619 0
M  V30 83 C 2.4744 6.4121 -3.4990 0
M  V30 84 H 3.2489 5.1734 -1.8904 0
M  V30 85 C 3.8315 6.9301 -3.9589 0
M  V30 86 H 2.0056 7.1233 -2.8154 0
M  V30 87 H 1.8100 6.2827 -4.3550 0
M  V30 88 C 4.4975 5.9201 -4.8872 0
M  V30 89 H 4.4702 7.0993 -3.0888 0
M  V30 90 H 3.7042 7.8850 -4.4730 0
M  V30 91 C 4.6442 4.5744 -4.1878 0
M  V30 92 H 5.4808 6.2833 -5.1928 0
M  V30 93 H 3.8896 5.7983 -5.7866 0
M  V30 94 H 5.2884 4.6725 -3.3123 0
M  V30 95 H 5.0997 3.8428 -4.8586 0
M  V30 96 H 2.6228 3.8924 -4.6013 0
M  V30 97 C 5.7993 -1.7763 2.2796 0
M  V30 98 C 4.9943 -2.6120 3.2952 0
M  V30 99 N 5.1054 -1.8053 1.0307 0
M  V30 100 N 3.7470 -1.9535 3.5243 0
M  V30 101 C 5.7576 -2.6967 4.6197 0
M  V30 102 H 4.8555 -3.6244 2.8742 0
M  V30 103 C 7.1409 -3.3023 4.4161 0
M  V30 104 H 5.1769 -3.2982 5.3223 0
M  V30 105 H 5.8435 -1.6899 5.0321 0
M  V30 106 C 7.9374 -2.4786 3.4099 0
M  V30 107 H 7.0391 -4.3257 4.0475 0
M  V30 108 H 7.6685 -3.3402 5.3713 0
M  V30 109 C 7.1882 -2.3909 2.0860 0
M  V30 110 H 8.9175 -2.9310 3.2469 0
M  V30 111 H 8.0931 -1.4729 3.8070 0
M  V30 112 H 7.0667 -3.3861 1.6547 0
M  V30 113 H 7.7457 -1.7817 1.3712 0
M  V30 114 H 5.8927 -0.7491 2.6765 0
M  V30 115 C -6.2213 0.7553 -2.9590 0
M  V30 116 C -5.5945 2.1162 -3.3239 0
M  V30 117 N -5.1869 -0.2302 -2.9796 0
M  V30 118 N -4.6854 2.4800 -2.2832 0
M  V30 119 C -6.6883 3.1833 -3.4186 0
M  V30 120 H -5.0852 2.0099 -4.2989 0
M  V30 121 C -7.7438 2.7952 -4.4467 0
M  V30 122 H -6.2273 4.1366 -3.6856 0
M  V30 123 H -7.1446 3.2963 -2.4336 0
M  V30 124 C -8.3626 1.4482 -4.0888 0
M  V30 125 H -7.2826 2.7314 -5.4350 0
M  V30 126 H -8.5175 3.5648 -4.4860 0
M  V30 127 C -7.2826 0.3773 -3.9959 0
M  V30 128 H -9.0988 1.1616 -4.8424 0
M  V30 129 H -8.8779 1.5294 -3.1289 0
M  V30 130 H -6.7906 0.2529 -4.9621 0
M  V30 131 H -7.7205 -0.5834 -3.7166 0
M  V30 132 H -6.6851 0.8468 -1.9601 0
M  V30 133 C -3.4834 -5.6935 2.2537 0
M  V30 134 C -3.4239 -4.9016 3.5757 0
M  V30 135 N -3.5961 -4.7574 1.1800 0
M  V30 136 N -2.2119 -4.1451 3.5864 0
M  V30 137 C -3.4107 -5.8703 4.7615 0
M  V30 138 H -4.3167 -4.2525 3.6285 0
M  V30 139 C -4.6365 -6.7751 4.7425 0
M  V30 140 H -3.3770 -5.2920 5.6874 0
M  V30 141 H -2.4993 -6.4683 4.7067 0
M  V30 142 C -4.6982 -7.5567 3.4346 0
M  V30 143 H -5.5386 -6.1677 4.8451 0
M  V30 144 H -4.5969 -7.4634 5.5893 0
M  V30 145 C -4.7160 -6.6019 2.2473 0
M  V30 146 H -5.5919 -8.1836 3.4140 0
M  V30 147 H -3.8266 -8.2114 3.3618 0
M  V30 148 H -5.6071 -5.9727 2.2824 0
M  V30 149 H -4.7365 -7.1598 1.3086 0
M  V30 150 H -2.5648 -6.3028 2.1760 0
M  V30 151 C -2.1411 4.0488 4.4612 0
M  V30 152 C -1.0835 3.3284 5.3219 0
M  V30 153 N -1.6978 4.0276 3.1030 0
M  V30 154 N -1.0607 1.9521 4.9381 0
M  V30 155 C -1.4666 3.4214 6.8015 0
M  V30 156 H -0.1088 3.8208 5.1526 0
M  V30 157 C -1.6049 4.8740 7.2404 0
M  V30 158 H -0.7030 2.9141 7.3948 0
M  V30 159 H -2.4099 2.8921 6.9463 0
M  V30 160 C -2.6483 5.5884 6.3884 0
M  V30 161 H -0.6421 5.3793 7.1341 0
M  V30 162 H -1.8901 4.9128 8.2937 0
M  V30 163 C -2.2747 5.5054 4.9135 0
M  V30 164 H -2.7248 6.6353 6.6886 0
M  V30 165 H -3.6240 5.1220 6.5432 0
M  V30 166 H -1.3228 6.0091 4.7364 0
M  V30 167 H -3.0328 5.9961 4.2993 0
M  V30 168 H -3.1049 3.5235 4.5896 0
M  V30 END ATOM
M  V30 BEGIN BOND
M  V30 1 1 139 143
M  V30 2 1 160 165
M  V30 3 1 124 129
M  V30 4 1 139 144
M  V30 5 1 160 164
M  V30 6 1 124 128
M  V30 7 1 142 146
M  V30 8 1 157 162
M  V30 9 1 121 126
M  V30 10 1 139 142
M  V30 11 1 137 139
M  V30 12 1 157 160
M  V30 13 1 160 163
M  V30 14 1 121 124
M  V30 15 1 124 127
M  V30 16 1 145 148
M  V30 17 1 155 159
M  V30 18 1 119 123
M  V30 19 1 137 140
M  V30 20 1 134 138
M  V30 21 1 142 145
M  V30 22 1 142 147
M  V30 23 1 151 168
M  V30 24 1 127 131
M  V30 25 1 163 167
M  V30 26 1 115 132
M  V30 27 1 155 157
M  V30 28 1 157 161
M  V30 29 1 119 121
M  V30 30 1 121 125
M  V30 31 1 134 137
M  V30 32 1 137 141
M  V30 33 1 145 149
M  V30 34 1 133 145
M  V30 35 1 151 163
M  V30 36 1 163 166
M  V30 37 1 115 127
M  V30 38 1 127 130
M  V30 39 1 155 158
M  V30 40 1 152 155
M  V30 41 1 119 122
M  V30 42 1 116 119
M  V30 43 1 57 60
M  V30 44 1 27 30
M  V30 45 1 42 45
M  V30 46 1 133 134
M  V30 47 1 134 136
M  V30 48 1 151 152
M  V30 49 1 151 153
M  V30 50 1 115 116
M  V30 51 1 115 117
M  V30 52 1 51 53
M  V30 53 1 21 23
M  V30 54 1 36 38
M  V30 55 1 133 135
M  V30 56 1 133 150
M  V30 57 1 152 154
M  V30 58 1 152 156
M  V30 59 1 116 118
M  V30 60 1 116 120
M  V30 61 2 57 136
M  V30 62 1 49 57
M  V30 63 2 27 117
M  V30 64 1 19 27
M  V30 65 2 42 153
M  V30 66 1 34 42
M  V30 67 2 25 135
M  V30 68 2 55 154
M  V30 69 2 40 118
M  V30 70 2 49 51
M  V30 71 1 51 52
M  V30 72 2 19 21
M  V30 73 1 21 22
M  V30 74 2 34 36
M  V30 75 1 36 37
M  V30 76 1 48 49
M  V30 77 1 18 19
M  V30 78 1 33 34
M  V30 79 1 22 25
M  V30 80 1 25 28
M  V30 81 1 52 55
M  V30 82 1 55 58
M  V30 83 1 37 40
M  V30 84 1 40 43
M  V30 85 2 22 24
M  V30 86 2 52 54
M  V30 87 2 37 39
M  V30 88 1 48 50
M  V30 89 2 46 48
M  V30 90 1 18 20
M  V30 91 2 16 18
M  V30 92 1 33 35
M  V30 93 2 31 33
M  V30 94 1 46 54
M  V30 95 1 54 56
M  V30 96 1 16 24
M  V30 97 1 24 26
M  V30 98 1 31 39
M  V30 99 1 39 41
M  V30 100 1 46 47
M  V30 101 1 16 17
M  V30 102 1 31 32
M  V30 103 1 47 59
M  V30 104 2 47 100
M  V30 105 1 17 29
M  V30 106 2 17 64
M  V30 107 1 32 44
M  V30 108 2 32 82
M  V30 109 1 98 100
M  V30 110 1 62 64
M  V30 111 1 80 82
M  V30 112 1 101 104
M  V30 113 1 65 68
M  V30 114 1 83 86
M  V30 115 1 101 105
M  V30 116 1 65 69
M  V30 117 1 83 87
M  V30 118 1 98 101
M  V30 119 1 98 102
M  V30 120 1 97 98
M  V30 121 1 62 65
M  V30 122 1 62 66
M  V30 123 1 61 62
M  V30 124 1 80 83
M  V30 125 1 80 84
M  V30 126 1 79 80
M  V30 127 1 101 103
M  V30 128 1 65 67
M  V30 129 1 83 85
M  V30 130 1 2 14
M  V30 131 1 12 15
M  V30 132 1 10 13
M  V30 133 1 3 5
M  V30 134 1 3 4
M  V30 135 2 1 3
M  V30 136 2 4 6
M  V30 137 1 4 12
M  V30 138 1 1 9
M  V30 139 1 1 2
M  V30 140 1 6 7
M  V30 141 1 6 8
M  V30 142 2 7 9
M  V30 143 1 9 11
M  V30 144 1 7 10
M  V30 145 2 12 99
M  V30 146 2 2 63
M  V30 147 2 10 81
M  V30 148 1 97 114
M  V30 149 1 61 78
M  V30 150 1 79 96
M  V30 151 1 97 99
M  V30 152 1 61 63
M  V30 153 1 79 81
M  V30 154 1 97 109
M  V30 155 1 61 73
M  V30 156 1 79 91
M  V30 157 1 103 108
M  V30 158 1 103 107
M  V30 159 1 103 106
M  V30 160 1 67 72
M  V30 161 1 67 71
M  V30 162 1 67 70
M  V30 163 1 85 90
M  V30 164 1 85 89
M  V30 165 1 85 88
M  V30 166 1 106 111
M  V30 167 1 70 75
M  V30 168 1 106 109
M  V30 169 1 109 112
M  V30 170 1 109 113
M  V30 171 1 70 73
M  V30 172 1 73 76
M  V30 173 1 73 77
M  V30 174 1 88 93
M  V30 175 1 88 91
M  V30 176 1 91 94
M  V30 177 1 91 95
M  V30 178 1 106 110
M  V30 179 1 70 74
M  V30 180 1 88 92
M  V30 END BOND
M  V30 END CTAB
M  END

$$$$
