
     RDKit          3D

  0  0  0  0  0  0  0  0  0  0999 V3000
M  V30 BEGIN CTAB
M  V30 COUNTS 168 180 0 0 0
M  V30 BEGIN ATOM
M  V30 1 C -1.3693 -2.9665 -2.8057 0
M  V30 2 C -2.7793 -2.7660 -3.1086 0
M  V30 3 C -0.9926 -3.7975 -1.7574 0
M  V30 4 C 0.3552 -4.0280 -1.4819 0
M  V30 5 H -1.7310 -4.2918 -1.1449 0
M  V30 6 C 1.3253 -3.4095 -2.2613 0
M  V30 7 C 0.9624 -2.5728 -3.3169 0
M  V30 8 H 2.3761 -3.5731 -2.0771 0
M  V30 9 C -0.3843 -2.3525 -3.5794 0
M  V30 10 C 1.9806 -1.9584 -4.1570 0
M  V30 11 H -0.6968 -1.7156 -4.3929 0
M  V30 12 C 0.7463 -4.9311 -0.4087 0
M  V30 13 H 1.6201 -1.1974 -4.8666 0
M  V30 14 H -3.4892 -3.1587 -2.3642 0
M  V30 15 H 1.8185 -4.9408 -0.1584 0
M  V30 16 C -3.5170 1.6208 -1.8715 0
M  V30 17 C -3.7570 0.9688 -3.1511 0
M  V30 18 C -2.7380 2.7701 -1.8106 0
M  V30 19 C -2.5326 3.4266 -0.5971 0
M  V30 20 H -2.2885 3.1865 -2.6990 0
M  V30 21 C -3.1072 2.9147 0.5601 0
M  V30 22 C -3.8915 1.7620 0.5145 0
M  V30 23 H -2.9721 3.4033 1.5128 0
M  V30 24 C -4.0875 1.1187 -0.7017 0
M  V30 25 C -4.5250 1.2514 1.7221 0
M  V30 26 H -4.6942 0.2288 -0.7703 0
M  V30 27 C -1.7497 4.6531 -0.5438 0
M  V30 28 H -4.9958 0.2600 1.6331 0
M  V30 29 H -3.1510 1.3342 -3.9947 0
M  V30 30 H -1.5062 5.0221 0.4646 0
M  V30 31 C 3.9014 1.1829 -1.3713 0
M  V30 32 C 4.5294 0.0982 -2.1122 0
M  V30 33 C 4.0960 1.2934 0.0005 0
M  V30 34 C 3.5324 2.3499 0.7159 0
M  V30 35 H 4.6966 0.5756 0.5378 0
M  V30 36 C 2.7614 3.2918 0.0455 0
M  V30 37 C 2.5572 3.1941 -1.3310 0
M  V30 38 H 2.3173 4.1241 0.5698 0
M  V30 39 C 3.1252 2.1360 -2.0307 0
M  V30 40 C 1.7824 4.2050 -2.0368 0
M  V30 41 H 2.9907 2.0367 -3.0970 0
M  V30 42 C 3.7722 2.4849 2.1457 0
M  V30 43 H 1.5389 3.9755 -3.0856 0
M  V30 44 H 4.9939 -0.6916 -1.5016 0
M  V30 45 H 3.1715 3.2499 2.6618 0
M  V30 46 C -0.3836 -2.5939 3.4090 0
M  V30 47 C -0.7885 -3.9279 2.9887 0
M  V30 48 C -1.3449 -1.6440 3.7328 0
M  V30 49 C -0.9702 -0.3750 4.1743 0
M  V30 50 H -2.3978 -1.8705 3.6639 0
M  V30 51 C 0.3794 -0.0611 4.2792 0
M  V30 52 C 1.3557 -1.0042 3.9574 0
M  V30 53 H 0.7010 0.9098 4.6236 0
M  V30 54 C 0.9674 -2.2646 3.5190 0
M  V30 55 C 2.7686 -0.6855 4.1070 0
M  V30 56 H 1.6988 -3.0177 3.2689 0
M  V30 57 C -1.9799 0.6040 4.5516 0
M  V30 58 H 3.4723 -1.4219 3.6888 0
M  V30 59 H -1.8618 -4.0581 2.7800 0
M  V30 60 H -1.6109 1.6242 4.7395 0
M  V30 61 C -4.5519 -2.0436 -4.4436 0
M  V30 62 C -4.8468 -0.5347 -4.5639 0
M  V30 63 N -3.1583 -2.2038 -4.1713 0
M  V30 64 N -4.6255 0.0654 -3.2861 0
M  V30 65 C -6.3097 -0.3212 -4.9620 0
M  V30 66 H -4.1797 -0.1146 -5.3384 0
M  V30 67 C -6.6283 -1.0277 -6.2739 0
M  V30 68 H -6.4972 0.7511 -5.0501 0
M  V30 69 H -6.9437 -0.7073 -4.1619 0
M  V30 70 C -6.3345 -2.5194 -6.1575 0
M  V30 71 H -6.0204 -0.5995 -7.0744 0
M  V30 72 H -7.6783 -0.8709 -6.5290 0
M  V30 73 C -4.8793 -2.7438 -5.7653 0
M  V30 74 H -6.5387 -3.0171 -7.1077 0
M  V30 75 H -6.9874 -2.9597 -5.4004 0
M  V30 76 H -4.2156 -2.3497 -6.5368 0
M  V30 77 H -4.6727 -3.8108 -5.6585 0
M  V30 78 H -5.1812 -2.4535 -3.6330 0
M  V30 79 C 4.1594 -1.6896 -4.9486 0
M  V30 80 C 5.2085 -0.9877 -4.0625 0
M  V30 81 N 3.1920 -2.3007 -4.0928 0
M  V30 82 N 4.5629 0.0840 -3.3722 0
M  V30 83 C 6.3241 -0.4093 -4.9373 0
M  V30 84 H 5.6256 -1.7365 -3.3650 0
M  V30 85 C 6.9835 -1.4987 -5.7740 0
M  V30 86 H 7.0604 0.0757 -4.2927 0
M  V30 87 H 5.8917 0.3547 -5.5856 0
M  V30 88 C 5.9469 -2.1956 -6.6487 0
M  V30 89 H 7.4521 -2.2315 -5.1131 0
M  V30 90 H 7.7655 -1.0595 -6.3969 0
M  V30 91 C 4.8332 -2.7786 -5.7877 0
M  V30 92 H 6.4188 -2.9929 -7.2265 0
M  V30 93 H 5.5234 -1.4757 -7.3528 0
M  V30 94 H 5.2358 -3.5343 -5.1109 0
M  V30 95 H 4.0775 -3.2580 -6.4137 0
M  V30 96 H 3.7046 -0.9302 -5.6103 0
M  V30 97 C 0.3359 -6.5629 1.2085 0
M  V30 98 C -0.4046 -6.1780 2.5051 0
M  V30 99 N -0.0890 -5.6742 0.1733 0
M  V30 100 N 0.0359 -4.8773 2.8999 0
M  V30 101 C -0.0593 -7.1737 3.6159 0
M  V30 102 H -1.4905 -6.2020 2.3010 0
M  V30 103 C -0.4176 -8.5967 3.2057 0
M  V30 104 H -0.5985 -6.8901 4.5222 0
M  V30 105 H 1.0092 -7.0989 3.8248 0
M  V30 106 C 0.3118 -8.9779 1.9220 0
M  V30 107 H -1.4959 -8.6683 3.0452 0
M  V30 108 H -0.1507 -9.2874 4.0081 0
M  V30 109 C -0.0278 -7.9953 0.8081 0
M  V30 110 H 0.0316 -9.9882 1.6173 0
M  V30 111 H 1.3894 -8.9673 2.1004 0
M  V30 112 H -1.0961 -8.0299 0.5873 0
M  V30 113 H 0.5117 -8.2526 -0.1060 0
M  V30 114 H 1.4221 -6.4877 1.3974 0
M  V30 115 C -0.6502 6.4775 -1.4972 0
M  V30 116 C 0.6970 6.2633 -2.2162 0
M  V30 117 N -1.4007 5.2652 -1.5891 0
M  V30 118 N 1.4401 5.2856 -1.4854 0
M  V30 119 C 1.4900 7.5728 -2.2348 0
M  V30 120 H 0.4866 5.9344 -3.2500 0
M  V30 121 C 0.6983 8.6822 -2.9161 0
M  V30 122 H 2.4356 7.4039 -2.7545 0
M  V30 123 H 1.7191 7.8508 -1.2046 0
M  V30 124 C -0.6355 8.8934 -2.2079 0
M  V30 125 H 0.5165 8.4116 -3.9588 0
M  V30 126 H 1.2792 9.6068 -2.9052 0
M  V30 127 C -1.4352 7.5965 -2.1872 0
M  V30 128 H -1.2107 9.6704 -2.7154 0
M  V30 129 H -0.4535 9.2250 -1.1830 0
M  V30 130 H -1.6644 7.2784 -3.2057 0
M  V30 131 H -2.3808 7.7394 -1.6598 0
M  V30 132 H -0.4401 6.7551 -0.4483 0
M  V30 133 C -5.2034 1.3939 3.9507 0
M  V30 134 C -4.1535 1.2741 5.0739 0
M  V30 135 N -4.5549 1.9191 2.7908 0
M  V30 136 N -3.1938 0.2907 4.6821 0
M  V30 137 C -4.8286 0.8152 6.3694 0
M  V30 138 H -3.6914 2.2672 5.2203 0
M  V30 139 C -5.9348 1.7788 6.7810 0
M  V30 140 H -4.0721 0.7444 7.1539 0
M  V30 141 H -5.2386 -0.1834 6.2084 0
M  V30 142 C -6.9723 1.9004 5.6700 0
M  V30 143 H -5.5039 2.7619 6.9841 0
M  V30 144 H -6.4078 1.4232 7.6986 0
M  V30 145 C -6.3117 2.3607 4.3765 0
M  V30 146 H -7.7488 2.6119 5.9582 0
M  V30 147 H -7.4480 0.9301 5.5102 0
M  V30 148 H -5.8721 3.3509 4.5088 0
M  V30 149 H -7.0488 2.4260 3.5732 0
M  V30 150 H -5.6277 0.3900 3.7679 0
M  V30 151 C 4.8576 1.9620 4.1445 0
M  V30 152 C 4.5520 0.6245 4.8487 0
M  V30 153 N 4.6351 1.7875 2.7439 0
M  V30 154 N 3.1562 0.3549 4.7039 0
M  V30 155 C 4.8806 0.7356 6.3401 0
M  V30 156 H 5.1750 -0.1600 4.3822 0
M  V30 157 C 6.3390 1.1229 6.5515 0
M  V30 158 H 4.6662 -0.2219 6.8195 0
M  V30 159 H 4.2231 1.4862 6.7820 0
M  V30 160 C 6.6435 2.4438 5.8533 0
M  V30 161 H 6.9854 0.3409 6.1461 0
M  V30 162 H 6.5443 1.2076 7.6206 0
M  V30 163 C 6.3237 2.3433 4.3669 0
M  V30 164 H 7.6957 2.7039 5.9849 0
M  V30 165 H 6.0422 3.2381 6.3017 0
M  V30 166 H 6.9515 1.5845 3.8963 0
M  V30 167 H 6.5187 3.2955 3.8690 0
M  V30 168 H 4.1966 2.7361 4.5746 0
M  V30 END ATOM
M  V30 BEGIN BOND
M  V30 1 1 139 143
M  V30 2 1 160 165
M  V30 3 1 124 129
M  V30 4 1 139 144
M  V30 5 1 160 164
M  V30 6 1 124 128
M  V30 7 1 142 146
M  V30 8 1 157 162
M  V30 9 1 121 126
M  V30 10 1 139 142
M  V30 11 1 137 139
M  V30 12 1 157 160
M  V30 13 1 160 163
M  V30 14 1 121 124
M  V30 15 1 124 127
M  V30 16 1 145 148
M  V30 17 1 155 159
M  V30 18 1 119 123
M  V30 19 1 137 140
M  V30 20 1 134 138
M  V30 21 1 142 145
M  V30 22 1 142 147
M  V30 23 1 151 168
M  V30 24 1 127 131
M  V30 25 1 163 167
M  V30 26 1 115 132
M  V30 27 1 155 157
M  V30 28 1 157 161
M  V30 29 1 119 121
M  V30 30 1 121 125
M  V30 31 1 134 137
M  V30 32 1 137 141
M  V30 33 1 145 149
M  V30 34 1 133 145
M  V30 35 1 151 163
M  V30 36 1 163 166
M  V30 37 1 115 127
M  V30 38 1 127 130
M  V30 39 1 155 158
M  V30 40 1 152 155
M  V30 41 1 119 122
M  V30 42 1 116 119
M  V30 43 1 57 60
M  V30 44 1 27 30
M  V30 45 1 42 45
M  V30 46 1 133 134
M  V30 47 1 134 136
M  V30 48 1 151 152
M  V30 49 1 151 153
M  V30 50 1 115 116
M  V30 51 1 115 117
M  V30 52 1 51 53
M  V30 53 1 21 23
M  V30 54 1 36 38
M  V30 55 1 133 135
M  V30 56 1 133 150
M  V30 57 1 152 154
M  V30 58 1 152 156
M  V30 59 1 116 118
M  V30 60 1 116 120
M  V30 61 2 57 136
M  V30 62 1 49 57
M  V30 63 2 27 117
M  V30 64 1 19 27
M  V30 65 2 42 153
M  V30 66 1 34 42
M  V30 67 2 25 135
M  V30 68 2 55 154
M  V30 69 2 40 118
M  V30 70 2 49 51
M  V30 71 1 51 52
M  V30 72 2 19 21
M  V30 73 1 21 22
M  V30 74 2 34 36
M  V30 75 1 36 37
M  V30 76 1 48 49
M  V30 77 1 18 19
M  V30 78 1 33 34
M  V30 79 1 22 25
M  V30 80 1 25 28
M  V30 81 1 52 55
M  V30 82 1 55 58
M  V30 83 1 37 40
M  V30 84 1 40 43
M  V30 85 2 22 24
M  V30 86 2 52 54
M  V30 87 2 37 39
M  V30 88 1 48 50
M  V30 89 2 46 48
M  V30 90 1 18 20
M  V30 91 2 16 18
M  V30 92 1 33 35
M  V30 93 2 31 33
M  V30 94 1 46 54
M  V30 95 1 54 56
M  V30 96 1 16 24
M  V30 97 1 24 26
M  V30 98 1 31 39
M  V30 99 1 39 41
M  V30 100 1 46 47
M  V30 101 1 16 17
M  V30 102 1 31 32
M  V30 103 1 47 59
M  V30 104 2 47 100
M  V30 105 1 17 29
M  V30 106 2 17 64
M  V30 107 1 32 44
M  V30 108 2 32 82
M  V30 109 1 98 100
M  V30 110 1 62 64
M  V30 111 1 80 82
M  V30 112 1 101 104
M  V30 113 1 65 68
M  V30 114 1 83 86
M  V30 115 1 101 105
M  V30 116 1 65 69
M  V30 117 1 83 87
M  V30 118 1 98 101
M  V30 119 1 98 102
M  V30 120 1 97 98
M  V30 121 1 62 65
M  V30 122 1 62 66
M  V30 123 1 61 62
M  V30 124 1 80 83
M  V30 125 1 80 84
M  V30 126 1 79 80
M  V30 127 1 101 103
M  V30 128 1 65 67
M  V30 129 1 83 85
M  V30 130 1 2 14
M  V30 131 1 12 15
M  V30 132 1 10 13
M  V30 133 1 3 5
M  V30 134 1 3 4
M  V30 135 2 1 3
M  V30 136 2 4 6
M  V30 137 1 4 12
M  V30 138 1 1 9
M  V30 139 1 1 2
M  V30 140 1 6 7
M  V30 141 1 6 8
M  V30 142 2 7 9
M  V30 143 1 9 11
M  V30 144 1 7 10
M  V30 145 2 12 99
M  V30 146 2 2 63
M  V30 147 2 10 81
M  V30 148 1 97 114
M  V30 149 1 61 78
M  V30 150 1 79 96
M  V30 151 1 97 99
M  V30 152 1 61 63
M  V30 153 1 79 81
M  V30 154 1 97 109
M  V30 155 1 61 73
M  V30 156 1 79 91
M  V30 157 1 103 108
M  V30 158 1 103 107
M  V30 159 1 103 106
M  V30 160 1 67 72
M  V30 161 1 67 71
M  V30 162 1 67 70
M  V30 163 1 85 90
M  V30 164 1 85 89
M  V30 165 1 85 88
M  V30 166 1 106 111
M  V30 167 1 70 75
M  V30 168 1 106 109
M  V30 169 1 109 112
M  V30 170 1 109 113
M  V30 171 1 70 73
M  V30 172 1 73 76
M  V30 173 1 73 77
M  V30 174 1 88 93
M  V30 175 1 88 91
M  V30 176 1 91 94
M  V30 177 1 91 95
M  V30 178 1 106 110
M  V30 179 1 70 74
M  V30 180 1 88 92
M  V30 END BOND
M  V30 END CTAB
M  END

$$$$
