
     RDKit          3D

  0  0  0  0  0  0  0  0  0  0999 V3000
M  V30 BEGIN CTAB
M  V30 COUNTS 168 180 0 0 0
M  V30 BEGIN ATOM
M  V30 1 C -1.7389 0.0848 3.7440 0
M  V30 2 C -3.1689 -0.1891 3.7387 0
M  V30 3 C -1.2783 1.3897 3.6154 0
M  V30 4 C 0.0876 1.6690 3.6578 0
M  V30 5 H -1.9647 2.2137 3.4945 0
M  V30 6 C 0.9916 0.6261 3.8207 0
M  V30 7 C 0.5442 -0.6887 3.9511 0
M  V30 8 H 2.0540 0.8108 3.8639 0
M  V30 9 C -0.8197 -0.9518 3.9068 0
M  V30 10 C 1.4912 -1.7744 4.1622 0
M  V30 11 H -1.1972 -1.9576 4.0113 0
M  V30 12 C 0.5647 3.0415 3.5635 0
M  V30 13 H 1.0738 -2.7917 4.1030 0
M  V30 14 H -3.8167 0.6547 3.4546 0
M  V30 15 H 1.6534 3.1631 3.4523 0
M  V30 16 C -3.8170 -2.3692 -0.2794 0
M  V30 17 C -4.1560 -2.7986 1.0699 0
M  V30 18 C -3.0384 -3.1824 -1.0942 0
M  V30 19 C -2.7392 -2.8008 -2.4022 0
M  V30 20 H -2.6617 -4.1295 -0.7397 0
M  V30 21 C -3.2192 -1.5893 -2.8850 0
M  V30 22 C -4.0018 -0.7625 -2.0788 0
M  V30 23 H -3.0102 -1.2692 -3.8943 0
M  V30 24 C -4.2919 -1.1559 -0.7779 0
M  V30 25 C -4.5364 0.4871 -2.6012 0
M  V30 26 H -4.9000 -0.5411 -0.1320 0
M  V30 27 C -1.9575 -3.6741 -3.2661 0
M  V30 28 H -5.0104 1.1512 -1.8618 0
M  V30 29 H -3.6196 -3.6871 1.4376 0
M  V30 30 H -1.6359 -3.2366 -4.2240 0
M  V30 31 C 3.6188 -2.1357 0.0805 0
M  V30 32 C 4.1888 -1.9296 1.4043 0
M  V30 33 C 3.9212 -1.2564 -0.9525 0
M  V30 34 C 3.4134 -1.4644 -2.2349 0
M  V30 35 H 4.5642 -0.4051 -0.7896 0
M  V30 36 C 2.5895 -2.5580 -2.4722 0
M  V30 37 C 2.2772 -3.4491 -1.4454 0
M  V30 38 H 2.1862 -2.7495 -3.4548 0
M  V30 39 C 2.7906 -3.2291 -0.1727 0
M  V30 40 C 1.4465 -4.6161 -1.7068 0
M  V30 41 H 2.5723 -3.9041 0.6408 0
M  V30 42 C 3.7653 -0.5640 -3.3238 0
M  V30 43 H 1.1212 -5.1806 -0.8193 0
M  V30 44 H 4.7022 -0.9678 1.5593 0
M  V30 45 H 3.2055 -0.7048 -4.2614 0
M  V30 46 C -0.2651 4.1528 -0.8400 0
M  V30 47 C -0.6988 4.8209 0.3789 0
M  V30 48 C -1.2001 3.7665 -1.7928 0
M  V30 49 C -0.7947 3.1609 -2.9823 0
M  V30 50 H -2.2546 3.9386 -1.6409 0
M  V30 51 C 0.5583 2.9354 -3.2053 0
M  V30 52 C 1.5083 3.3175 -2.2578 0
M  V30 53 H 0.9038 2.4747 -4.1180 0
M  V30 54 C 1.0896 3.9199 -1.0776 0
M  V30 55 C 2.9279 3.1164 -2.5124 0
M  V30 56 H 1.8008 4.2326 -0.3284 0
M  V30 57 C -1.7738 2.7947 -3.9959 0
M  V30 58 H 3.5980 3.3002 -1.6583 0
M  V30 59 H -1.7849 4.8275 0.5598 0
M  V30 60 H -1.3935 2.1859 -4.8309 0
M  V30 61 C -5.0434 -1.5391 4.0705 0
M  V30 62 C -5.3506 -2.6719 3.0702 0
M  V30 63 N -3.6322 -1.3143 4.0678 0
M  V30 64 N -5.0302 -2.2061 1.7578 0
M  V30 65 C -6.8409 -3.0191 3.1199 0
M  V30 66 H -4.7479 -3.5539 3.3538 0
M  V30 67 C -7.2606 -3.4284 4.5263 0
M  V30 68 H -7.0374 -3.8273 2.4122 0
M  V30 69 H -7.4086 -2.1451 2.7961 0
M  V30 70 C -6.9549 -2.3103 5.5171 0
M  V30 71 H -6.7191 -4.3309 4.8193 0
M  V30 72 H -8.3279 -3.6584 4.5379 0
M  V30 73 C -5.4727 -1.9592 5.4789 0
M  V30 74 H -7.2325 -2.6181 6.5273 0
M  V30 75 H -7.5447 -1.4272 5.2608 0
M  V30 76 H -4.8731 -2.8204 5.7786 0
M  V30 77 H -5.2557 -1.1426 6.1708 0
M  V30 78 H -5.6055 -0.6410 3.7563 0
M  V30 79 C 3.5998 -2.6490 4.6468 0
M  V30 80 C 4.7140 -2.5794 3.5829 0
M  V30 81 N 2.7047 -1.5575 4.4251 0
M  V30 82 N 4.1225 -2.8111 2.3029 0
M  V30 83 C 5.7555 -3.6698 3.8492 0
M  V30 84 H 5.1869 -1.5826 3.6451 0
M  V30 85 C 6.3492 -3.5297 5.2455 0
M  V30 86 H 6.5393 -3.5995 3.0919 0
M  V30 87 H 5.2713 -4.6417 3.7407 0
M  V30 88 C 5.2483 -3.5955 6.2986 0
M  V30 89 H 6.8705 -2.5729 5.3248 0
M  V30 90 H 7.0784 -4.3247 5.4150 0
M  V30 91 C 4.2077 -2.5117 6.0453 0
M  V30 92 H 5.6749 -3.4680 7.2955 0
M  V30 93 H 4.7687 -4.5763 6.2611 0
M  V30 94 H 4.6645 -1.5238 6.1262 0
M  V30 95 H 3.4060 -2.5717 6.7845 0
M  V30 96 H 3.0922 -3.6259 4.5499 0
M  V30 97 C 0.2875 5.3588 3.5592 0
M  V30 98 C -0.3489 6.0455 2.3340 0
M  V30 99 N -0.2201 4.0252 3.6351 0
M  V30 100 N 0.1183 5.3807 1.1585 0
M  V30 101 C 0.0857 7.5125 2.2763 0
M  V30 102 H -1.4475 5.9810 2.4358 0
M  V30 103 C -0.3005 8.2480 3.5536 0
M  V30 104 H -0.3808 7.9834 1.4084 0
M  V30 105 H 1.1673 7.5454 2.1342 0
M  V30 106 C 0.3259 7.5685 4.7666 0
M  V30 107 H -1.3880 8.2475 3.6589 0
M  V30 108 H 0.0308 9.2866 3.4928 0
M  V30 109 C -0.1032 6.1081 4.8360 0
M  V30 110 H 0.0249 8.0826 5.6816 0
M  V30 111 H 1.4143 7.6247 4.6919 0
M  V30 112 H -1.1856 6.0384 4.9580 0
M  V30 113 H 0.3629 5.6132 5.6908 0
M  V30 114 H 1.3852 5.3763 3.4319 0
M  V30 115 C -0.9414 -5.6984 -3.8282 0
M  V30 116 C 0.3452 -6.1328 -3.0974 0
M  V30 117 N -1.6939 -4.8643 -2.9453 0
M  V30 118 N 1.1462 -4.9697 -2.8788 0
M  V30 119 C 1.1311 -7.1160 -3.9690 0
M  V30 120 H 0.0545 -6.6184 -2.1483 0
M  V30 121 C 0.2852 -8.3343 -4.3184 0
M  V30 122 H 2.0330 -7.4183 -3.4325 0
M  V30 123 H 1.4404 -6.5981 -4.8786 0
M  V30 124 C -0.9889 -7.9062 -5.0386 0
M  V30 125 H 0.0221 -8.8690 -3.4028 0
M  V30 126 H 0.8629 -9.0127 -4.9495 0
M  V30 127 C -1.7813 -6.9301 -4.1778 0
M  V30 128 H -1.6044 -8.7797 -5.2631 0
M  V30 129 H -0.7272 -7.4271 -5.9849 0
M  V30 130 H -2.0896 -7.4113 -3.2481 0
M  V30 131 H -2.6825 -6.6038 -4.7014 0
M  V30 132 H -0.6496 -5.1659 -4.7515 0
M  V30 133 C -5.0366 1.9992 -4.3072 0
M  V30 134 C -3.9008 2.8162 -4.9559 0
M  V30 135 N -4.4833 0.7721 -3.8280 0
M  V30 136 N -2.9727 3.1781 -3.9316 0
M  V30 137 C -4.4701 4.0937 -5.5791 0
M  V30 138 H -3.4310 2.1919 -5.7374 0
M  V30 139 C -5.5426 3.7682 -6.6112 0
M  V30 140 H -3.6537 4.6539 -6.0400 0
M  V30 141 H -4.8891 4.7085 -4.7805 0
M  V30 142 C -6.6651 2.9579 -5.9718 0
M  V30 143 H -5.0993 3.1928 -7.4273 0
M  V30 144 H -5.9406 4.6944 -7.0307 0
M  V30 145 C -6.1101 1.6815 -5.3518 0
M  V30 146 H -7.4181 2.7041 -6.7206 0
M  V30 147 H -7.1496 3.5574 -5.1977 0
M  V30 148 H -5.6638 1.0507 -6.1226 0
M  V30 149 H -6.9086 1.1109 -4.8727 0
M  V30 150 H -5.4716 2.6032 -3.4904 0
M  V30 151 C 5.0068 1.1536 -4.3011 0
M  V30 152 C 4.7612 2.6124 -3.8658 0
M  V30 153 N 4.6746 0.3007 -3.2039 0
M  V30 154 N 3.3590 2.7812 -3.6484 0
M  V30 155 C 5.2066 3.5680 -4.9762 0
M  V30 156 H 5.3472 2.8008 -2.9480 0
M  V30 157 C 6.6762 3.3597 -5.3203 0
M  V30 158 H 5.0331 4.5947 -4.6469 0
M  V30 159 H 4.5843 3.3883 -5.8545 0
M  V30 160 C 6.9212 1.9167 -5.7483 0
M  V30 161 H 7.2904 3.5880 -4.4461 0
M  V30 162 H 6.9653 4.0429 -6.1215 0
M  V30 163 C 6.4850 0.9568 -4.6484 0
M  V30 164 H 7.9799 1.7653 -5.9681 0
M  V30 165 H 6.3554 1.7076 -6.6591 0
M  V30 166 H 7.0754 1.1237 -3.7457 0
M  V30 167 H 6.6376 -0.0781 -4.9620 0
M  V30 168 H 4.3801 0.9491 -5.1880 0
M  V30 END ATOM
M  V30 BEGIN BOND
M  V30 1 1 139 143
M  V30 2 1 160 165
M  V30 3 1 124 129
M  V30 4 1 139 144
M  V30 5 1 160 164
M  V30 6 1 124 128
M  V30 7 1 142 146
M  V30 8 1 157 162
M  V30 9 1 121 126
M  V30 10 1 139 142
M  V30 11 1 137 139
M  V30 12 1 157 160
M  V30 13 1 160 163
M  V30 14 1 121 124
M  V30 15 1 124 127
M  V30 16 1 145 148
M  V30 17 1 155 159
M  V30 18 1 119 123
M  V30 19 1 137 140
M  V30 20 1 134 138
M  V30 21 1 142 145
M  V30 22 1 142 147
M  V30 23 1 151 168
M  V30 24 1 127 131
M  V30 25 1 163 167
M  V30 26 1 115 132
M  V30 27 1 155 157
M  V30 28 1 157 161
M  V30 29 1 119 121
M  V30 30 1 121 125
M  V30 31 1 134 137
M  V30 32 1 137 141
M  V30 33 1 145 149
M  V30 34 1 133 145
M  V30 35 1 151 163
M  V30 36 1 163 166
M  V30 37 1 115 127
M  V30 38 1 127 130
M  V30 39 1 155 158
M  V30 40 1 152 155
M  V30 41 1 119 122
M  V30 42 1 116 119
M  V30 43 1 57 60
M  V30 44 1 27 30
M  V30 45 1 42 45
M  V30 46 1 133 134
M  V30 47 1 134 136
M  V30 48 1 151 152
M  V30 49 1 151 153
M  V30 50 1 115 116
M  V30 51 1 115 117
M  V30 52 1 51 53
M  V30 53 1 21 23
M  V30 54 1 36 38
M  V30 55 1 133 135
M  V30 56 1 133 150
M  V30 57 1 152 154
M  V30 58 1 152 156
M  V30 59 1 116 118
M  V30 60 1 116 120
M  V30 61 2 57 136
M  V30 62 1 49 57
M  V30 63 2 27 117
M  V30 64 1 19 27
M  V30 65 2 42 153
M  V30 66 1 34 42
M  V30 67 2 25 135
M  V30 68 2 55 154
M  V30 69 2 40 118
M  V30 70 2 49 51
M  V30 71 1 51 52
M  V30 72 2 19 21
M  V30 73 1 21 22
M  V30 74 2 34 36
M  V30 75 1 36 37
M  V30 76 1 48 49
M  V30 77 1 18 19
M  V30 78 1 33 34
M  V30 79 1 22 25
M  V30 80 1 25 28
M  V30 81 1 52 55
M  V30 82 1 55 58
M  V30 83 1 37 40
M  V30 84 1 40 43
M  V30 85 2 22 24
M  V30 86 2 52 54
M  V30 87 2 37 39
M  V30 88 1 48 50
M  V30 89 2 46 48
M  V30 90 1 18 20
M  V30 91 2 16 18
M  V30 92 1 33 35
M  V30 93 2 31 33
M  V30 94 1 46 54
M  V30 95 1 54 56
M  V30 96 1 16 24
M  V30 97 1 24 26
M  V30 98 1 31 39
M  V30 99 1 39 41
M  V30 100 1 46 47
M  V30 101 1 16 17
M  V30 102 1 31 32
M  V30 103 1 47 59
M  V30 104 2 47 100
M  V30 105 1 17 29
M  V30 106 2 17 64
M  V30 107 1 32 44
M  V30 108 2 32 82
M  V30 109 1 98 100
M  V30 110 1 62 64
M  V30 111 1 80 82
M  V30 112 1 101 104
M  V30 113 1 65 68
M  V30 114 1 83 86
M  V30 115 1 101 105
M  V30 116 1 65 69
M  V30 117 1 83 87
M  V30 118 1 98 101
M  V30 119 1 98 102
M  V30 120 1 97 98
M  V30 121 1 62 65
M  V30 122 1 62 66
M  V30 123 1 61 62
M  V30 124 1 80 83
M  V30 125 1 80 84
M  V30 126 1 79 80
M  V30 127 1 101 103
M  V30 128 1 65 67
M  V30 129 1 83 85
M  V30 130 1 2 14
M  V30 131 1 12 15
M  V30 132 1 10 13
M  V30 133 1 3 5
M  V30 134 1 3 4
M  V30 135 2 1 3
M  V30 136 2 4 6
M  V30 137 1 4 12
M  V30 138 1 1 9
M  V30 139 1 1 2
M  V30 140 1 6 7
M  V30 141 1 6 8
M  V30 142 2 7 9
M  V30 143 1 9 11
M  V30 144 1 7 10
M  V30 145 2 12 99
M  V30 146 2 2 63
M  V30 147 2 10 81
M  V30 148 1 97 114
M  V30 149 1 61 78
M  V30 150 1 79 96
M  V30 151 1 97 99
M  V30 152 1 61 63
M  V30 153 1 79 81
M  V30 154 1 97 109
M  V30 155 1 61 73
M  V30 156 1 79 91
M  V30 157 1 103 108
M  V30 158 1 103 107
M  V30 159 1 103 106
M  V30 160 1 67 72
M  V30 161 1 67 71
M  V30 162 1 67 70
M  V30 163 1 85 90
M  V30 164 1 85 89
M  V30 165 1 85 88
M  V30 166 1 106 111
M  V30 167 1 70 75
M  V30 168 1 106 109
M  V30 169 1 109 112
M  V30 170 1 109 113
M  V30 171 1 70 73
M  V30 172 1 73 76
M  V30 173 1 73 77
M  V30 174 1 88 93
M  V30 175 1 88 91
M  V30 176 1 91 94
M  V30 177 1 91 95
M  V30 178 1 106 110
M  V30 179 1 70 74
M  V30 180 1 88 92
M  V30 END BOND
M  V30 END CTAB
M  END

$$$$
