
     RDKit          3D

  0  0  0  0  0  0  0  0  0  0999 V3000
M  V30 BEGIN CTAB
M  V30 COUNTS 168 180 0 0 0
M  V30 BEGIN ATOM
M  V30 1 C -0.4790 -2.3014 -3.8911 0
M  V30 2 C -0.3260 -3.7328 -3.6727 0
M  V30 3 C 0.6213 -1.5280 -4.2414 0
M  V30 4 C 0.4803 -0.1630 -4.4910 0
M  V30 5 H 1.6021 -1.9670 -4.3414 0
M  V30 6 C -0.7739 0.4246 -4.3768 0
M  V30 7 C -1.8874 -0.3389 -4.0260 0
M  V30 8 H -0.9163 1.4769 -4.5697 0
M  V30 9 C -1.7316 -1.6978 -3.7802 0
M  V30 10 C -3.2071 0.2713 -3.9467 0
M  V30 11 H -2.5750 -2.3164 -3.5133 0
M  V30 12 C 1.6275 0.6366 -4.8973 0
M  V30 13 H -4.0012 -0.3601 -3.5187 0
M  V30 14 H 0.7103 -4.1022 -3.6292 0
M  V30 15 H 1.4657 1.7253 -4.9266 0
M  V30 16 C -0.9465 -4.1839 0.8803 0
M  V30 17 C -1.6425 -4.8415 -0.2166 0
M  V30 18 C -1.6667 -3.4940 1.8482 0
M  V30 19 C -1.0155 -2.8929 2.9255 0
M  V30 20 H -2.7421 -3.4204 1.7959 0
M  V30 21 C 0.3682 -2.9801 3.0197 0
M  V30 22 C 1.1044 -3.6692 2.0559 0
M  V30 23 H 0.9003 -2.5312 3.8444 0
M  V30 24 C 0.4420 -4.2632 0.9882 0
M  V30 25 C 2.5500 -3.7929 2.1794 0
M  V30 26 H 0.9831 -4.8085 0.2302 0
M  V30 27 C -1.7769 -2.2059 3.9591 0
M  V30 28 H 3.0708 -4.2143 1.3055 0
M  V30 29 H -2.7131 -4.6035 -0.3143 0
M  V30 30 H -1.1845 -1.6300 4.6869 0
M  V30 31 C -2.9273 2.9183 -0.1740 0
M  V30 32 C -3.2906 3.2856 -1.5353 0
M  V30 33 C -1.9038 3.5939 0.4800 0
M  V30 34 C -1.5720 3.2786 1.7976 0
M  V30 35 H -1.3552 4.3836 -0.0099 0
M  V30 36 C -2.2691 2.2709 2.4531 0
M  V30 37 C -3.2987 1.5840 1.8097 0
M  V30 38 H -2.0402 2.0081 3.4746 0
M  V30 39 C -3.6183 1.9092 0.4968 0
M  V30 40 C -4.0537 0.5564 2.5127 0
M  V30 41 H -4.4139 1.4003 -0.0257 0
M  V30 42 C -0.5266 4.0162 2.4929 0
M  V30 43 H -4.7403 -0.0411 1.8933 0
M  V30 44 H -2.6023 3.9790 -2.0432 0
M  V30 45 H -0.2208 3.6081 3.4687 0
M  V30 46 C 4.1772 0.8625 -1.0553 0
M  V30 47 C 4.5487 0.3985 -2.3845 0
M  V30 48 C 4.3688 0.0399 0.0484 0
M  V30 49 C 4.0537 0.4868 1.3316 0
M  V30 50 H 4.7771 -0.9531 -0.0608 0
M  V30 51 C 3.5339 1.7646 1.4996 0
M  V30 52 C 3.3359 2.6016 0.4012 0
M  V30 53 H 3.2862 2.1413 2.4800 0
M  V30 54 C 3.6546 2.1428 -0.8713 0
M  V30 55 C 2.8291 3.9542 0.5850 0
M  V30 56 H 3.5189 2.7688 -1.7399 0
M  V30 57 C 4.2939 -0.3628 2.4895 0
M  V30 58 H 2.5562 4.4924 -0.3361 0
M  V30 59 H 4.8061 -0.6692 -2.4634 0
M  V30 60 H 3.8782 -0.0015 3.4429 0
M  V30 61 C -1.1306 -5.9034 -3.3769 0
M  V30 62 C -1.7830 -6.2958 -2.0358 0
M  V30 63 N -1.3207 -4.5004 -3.5700 0
M  V30 64 N -1.0594 -5.6538 -0.9840 0
M  V30 65 C -1.6963 -7.8118 -1.8396 0
M  V30 66 H -2.8413 -5.9786 -2.0623 0
M  V30 67 C -2.3680 -8.5515 -2.9899 0
M  V30 68 H -2.1698 -8.0711 -0.8903 0
M  V30 69 H -0.6431 -8.0906 -1.7756 0
M  V30 70 C -1.7259 -8.1624 -4.3172 0
M  V30 71 H -3.4308 -8.2992 -3.0133 0
M  V30 72 H -2.2819 -9.6286 -2.8330 0
M  V30 73 C -1.8101 -6.6552 -4.5247 0
M  V30 74 H -2.2278 -8.6742 -5.1408 0
M  V30 75 H -0.6782 -8.4718 -4.3177 0
M  V30 76 H -2.8534 -6.3388 -4.5730 0
M  V30 77 H -1.3300 -6.3716 -5.4637 0
M  V30 78 H -0.0599 -6.1729 -3.3304 0
M  V30 79 C -4.7409 1.9955 -4.2940 0
M  V30 80 C -4.6756 3.2595 -3.4128 0
M  V30 81 N -3.4274 1.4381 -4.3698 0
M  V30 82 N -4.3426 2.8580 -2.0825 0
M  V30 83 C -6.0423 3.9494 -3.3919 0
M  V30 84 H -3.9165 3.9385 -3.8416 0
M  V30 85 C -6.4940 4.3112 -4.8014 0
M  V30 86 H -5.9743 4.8452 -2.7708 0
M  V30 87 H -6.7618 3.2734 -2.9269 0
M  V30 88 C -6.5564 3.0627 -5.6748 0
M  V30 89 H -5.7901 5.0240 -5.2373 0
M  V30 90 H -7.4747 4.7897 -4.7605 0
M  V30 91 C -5.1998 2.3698 -5.7059 0
M  V30 92 H -6.8545 3.3302 -6.6906 0
M  V30 93 H -7.3062 2.3768 -5.2740 0
M  V30 94 H -4.4499 3.0281 -6.1479 0
M  V30 95 H -5.2480 1.4625 -6.3119 0
M  V30 96 H -5.4617 1.2940 -3.8361 0
M  V30 97 C 3.8225 0.9248 -5.6360 0
M  V30 98 C 4.9905 0.6900 -4.6569 0
M  V30 99 N 2.7248 0.1085 -5.2225 0
M  V30 100 N 4.5999 1.1795 -3.3725 0
M  V30 101 C 6.2250 1.4651 -5.1253 0
M  V30 102 H 5.2099 -0.3930 -4.6370 0
M  V30 103 C 6.6273 1.0525 -6.5358 0
M  V30 104 H 7.0426 1.2802 -4.4254 0
M  V30 105 H 5.9935 2.5312 -5.0956 0
M  V30 106 C 5.4723 1.2815 -7.5049 0
M  V30 107 H 6.9010 -0.0052 -6.5412 0
M  V30 108 H 7.5006 1.6272 -6.8506 0
M  V30 109 C 4.2389 0.5112 -7.0501 0
M  V30 110 H 5.7557 0.9596 -8.5089 0
M  V30 111 H 5.2402 2.3482 -7.5467 0
M  V30 112 H 4.4429 -0.5610 -7.0487 0
M  V30 113 H 3.4033 0.6924 -7.7298 0
M  V30 114 H 3.5680 2.0001 -5.6164 0
M  V30 115 C -3.7444 -1.6209 5.0695 0
M  V30 116 C -4.7183 -0.6197 4.4160 0
M  V30 117 N -3.0325 -2.2926 4.0285 0
M  V30 118 N -3.9458 0.3859 3.7570 0
M  V30 119 C -5.5790 0.0464 5.4928 0
M  V30 120 H -5.3608 -1.1761 3.7096 0
M  V30 121 C -6.3506 -0.9928 6.2967 0
M  V30 122 H -6.2669 0.7446 5.0110 0
M  V30 123 H -4.9239 0.6213 6.1496 0
M  V30 124 C -5.3891 -1.9854 6.9415 0
M  V30 125 H -7.0357 -1.5287 5.6357 0
M  V30 126 H -6.9456 -0.4942 7.0646 0
M  V30 127 C -4.5298 -2.6576 5.8776 0
M  V30 128 H -5.9474 -2.7435 7.4942 0
M  V30 129 H -4.7453 -1.4588 7.6498 0
M  V30 130 H -5.1576 -3.2263 5.1896 0
M  V30 131 H -3.8241 -3.3516 6.3392 0
M  V30 132 H -3.0670 -1.0568 5.7361 0
M  V30 133 C 4.5756 -3.6182 3.3254 0
M  V30 134 C 5.1946 -2.2265 3.5673 0
M  V30 135 N 3.1581 -3.4639 3.2334 0
M  V30 136 N 4.9616 -1.4286 2.4052 0
M  V30 137 C 6.7052 -2.3594 3.7793 0
M  V30 138 H 4.7237 -1.7924 4.4679 0
M  V30 139 C 7.0142 -3.2855 4.9492 0
M  V30 140 H 7.1238 -1.3665 3.9571 0
M  V30 141 H 7.1481 -2.7502 2.8615 0
M  V30 142 C 6.4004 -4.6612 4.7126 0
M  V30 143 H 6.6058 -2.8591 5.8683 0
M  V30 144 H 8.0957 -3.3732 5.0712 0
M  V30 145 C 4.8958 -4.5412 4.5045 0
M  V30 146 H 6.6014 -5.3132 5.5651 0
M  V30 147 H 6.8549 -5.1140 3.8285 0
M  V30 148 H 4.4224 -4.1330 5.3992 0
M  V30 149 H 4.4573 -5.5227 4.3116 0
M  V30 150 H 5.0078 -4.0300 2.3954 0
M  V30 151 C 0.9821 5.7799 2.7366 0
M  V30 152 C 2.2545 5.8184 1.8661 0
M  V30 153 N -0.0278 5.0710 2.0162 0
M  V30 154 N 2.7379 4.4810 1.7265 0
M  V30 155 C 3.3303 6.6622 2.5553 0
M  V30 156 H 1.9905 6.2663 0.8909 0
M  V30 157 C 2.8292 8.0763 2.8214 0
M  V30 158 H 4.2191 6.6848 1.9211 0
M  V30 159 H 3.6006 6.1750 3.4937 0
M  V30 160 C 1.5695 8.0399 3.6798 0
M  V30 161 H 2.6068 8.5681 1.8715 0
M  V30 162 H 3.6088 8.6528 3.3236 0
M  V30 163 C 0.4901 7.2055 3.0011 0
M  V30 164 H 1.1990 9.0534 3.8455 0
M  V30 165 H 1.8066 7.6051 4.6535 0
M  V30 166 H 0.2099 7.6551 2.0468 0
M  V30 167 H -0.4050 7.1584 3.6250 0
M  V30 168 H 1.2337 5.2840 3.6916 0
M  V30 END ATOM
M  V30 BEGIN BOND
M  V30 1 1 139 143
M  V30 2 1 160 165
M  V30 3 1 124 129
M  V30 4 1 139 144
M  V30 5 1 160 164
M  V30 6 1 124 128
M  V30 7 1 142 146
M  V30 8 1 157 162
M  V30 9 1 121 126
M  V30 10 1 139 142
M  V30 11 1 137 139
M  V30 12 1 157 160
M  V30 13 1 160 163
M  V30 14 1 121 124
M  V30 15 1 124 127
M  V30 16 1 145 148
M  V30 17 1 155 159
M  V30 18 1 119 123
M  V30 19 1 137 140
M  V30 20 1 134 138
M  V30 21 1 142 145
M  V30 22 1 142 147
M  V30 23 1 151 168
M  V30 24 1 127 131
M  V30 25 1 163 167
M  V30 26 1 115 132
M  V30 27 1 155 157
M  V30 28 1 157 161
M  V30 29 1 119 121
M  V30 30 1 121 125
M  V30 31 1 134 137
M  V30 32 1 137 141
M  V30 33 1 145 149
M  V30 34 1 133 145
M  V30 35 1 151 163
M  V30 36 1 163 166
M  V30 37 1 115 127
M  V30 38 1 127 130
M  V30 39 1 155 158
M  V30 40 1 152 155
M  V30 41 1 119 122
M  V30 42 1 116 119
M  V30 43 1 57 60
M  V30 44 1 27 30
M  V30 45 1 42 45
M  V30 46 1 133 134
M  V30 47 1 134 136
M  V30 48 1 151 152
M  V30 49 1 151 153
M  V30 50 1 115 116
M  V30 51 1 115 117
M  V30 52 1 51 53
M  V30 53 1 21 23
M  V30 54 1 36 38
M  V30 55 1 133 135
M  V30 56 1 133 150
M  V30 57 1 152 154
M  V30 58 1 152 156
M  V30 59 1 116 118
M  V30 60 1 116 120
M  V30 61 2 57 136
M  V30 62 1 49 57
M  V30 63 2 27 117
M  V30 64 1 19 27
M  V30 65 2 42 153
M  V30 66 1 34 42
M  V30 67 2 25 135
M  V30 68 2 55 154
M  V30 69 2 40 118
M  V30 70 2 49 51
M  V30 71 1 51 52
M  V30 72 2 19 21
M  V30 73 1 21 22
M  V30 74 2 34 36
M  V30 75 1 36 37
M  V30 76 1 48 49
M  V30 77 1 18 19
M  V30 78 1 33 34
M  V30 79 1 22 25
M  V30 80 1 25 28
M  V30 81 1 52 55
M  V30 82 1 55 58
M  V30 83 1 37 40
M  V30 84 1 40 43
M  V30 85 2 22 24
M  V30 86 2 52 54
M  V30 87 2 37 39
M  V30 88 1 48 50
M  V30 89 2 46 48
M  V30 90 1 18 20
M  V30 91 2 16 18
M  V30 92 1 33 35
M  V30 93 2 31 33
M  V30 94 1 46 54
M  V30 95 1 54 56
M  V30 96 1 16 24
M  V30 97 1 24 26
M  V30 98 1 31 39
M  V30 99 1 39 41
M  V30 100 1 46 47
M  V30 101 1 16 17
M  V30 102 1 31 32
M  V30 103 1 47 59
M  V30 104 2 47 100
M  V30 105 1 17 29
M  V30 106 2 17 64
M  V30 107 1 32 44
M  V30 108 2 32 82
M  V30 109 1 98 100
M  V30 110 1 62 64
M  V30 111 1 80 82
M  V30 112 1 101 104
M  V30 113 1 65 68
M  V30 114 1 83 86
M  V30 115 1 101 105
M  V30 116 1 65 69
M  V30 117 1 83 87
M  V30 118 1 98 101
M  V30 119 1 98 102
M  V30 120 1 97 98
M  V30 121 1 62 65
M  V30 122 1 62 66
M  V30 123 1 61 62
M  V30 124 1 80 83
M  V30 125 1 80 84
M  V30 126 1 79 80
M  V30 127 1 101 103
M  V30 128 1 65 67
M  V30 129 1 83 85
M  V30 130 1 2 14
M  V30 131 1 12 15
M  V30 132 1 10 13
M  V30 133 1 3 5
M  V30 134 1 3 4
M  V30 135 2 1 3
M  V30 136 2 4 6
M  V30 137 1 4 12
M  V30 138 1 1 9
M  V30 139 1 1 2
M  V30 140 1 6 7
M  V30 141 1 6 8
M  V30 142 2 7 9
M  V30 143 1 9 11
M  V30 144 1 7 10
M  V30 145 2 12 99
M  V30 146 2 2 63
M  V30 147 2 10 81
M  V30 148 1 97 114
M  V30 149 1 61 78
M  V30 150 1 79 96
M  V30 151 1 97 99
M  V30 152 1 61 63
M  V30 153 1 79 81
M  V30 154 1 97 109
M  V30 155 1 61 73
M  V30 156 1 79 91
M  V30 157 1 103 108
M  V30 158 1 103 107
M  V30 159 1 103 106
M  V30 160 1 67 72
M  V30 161 1 67 71
M  V30 162 1 67 70
M  V30 163 1 85 90
M  V30 164 1 85 89
M  V30 165 1 85 88
M  V30 166 1 106 111
M  V30 167 1 70 75
M  V30 168 1 106 109
M  V30 169 1 109 112
M  V30 170 1 109 113
M  V30 171 1 70 73
M  V30 172 1 73 76
M  V30 173 1 73 77
M  V30 174 1 88 93
M  V30 175 1 88 91
M  V30 176 1 91 94
M  V30 177 1 91 95
M  V30 178 1 106 110
M  V30 179 1 70 74
M  V30 180 1 88 92
M  V30 END BOND
M  V30 END CTAB
M  END

$$$$
