
     RDKit          3D

  0  0  0  0  0  0  0  0  0  0999 V3000
M  V30 BEGIN CTAB
M  V30 COUNTS 46 46 0 0 0
M  V30 BEGIN ATOM
M  V30 1 C 0.2848 1.0968 -0.0026 0 CHG=1
M  V30 2 C 0.9769 -0.2111 -0.0026 0 CHG=1
M  V30 3 C -0.3433 -0.8557 -0.0026 0 CHG=1
M  V30 4 C -1.0202 0.4334 -0.0026 0 CHG=1
M  V30 5 C 6.2320 1.2869 -0.7033 0
M  V30 6 O 5.9459 0.0061 -1.2521 0
M  V30 7 C 6.2146 -0.8789 -0.2408 0
M  V30 8 O 5.4511 -0.7331 0.8399 0
M  V30 9 C 4.1307 -0.9214 0.8387 0
M  V30 10 C 3.1838 -0.2184 -0.0020 0
M  V30 11 H 6.0107 2.0139 -1.5036 0
M  V30 12 H 7.3075 1.2957 -0.4352 0
M  V30 13 H 5.6676 1.4961 0.1958 0
M  V30 14 H 7.2893 -0.6754 0.0699 0
M  V30 15 H 6.2574 -1.9342 -0.6467 0
M  V30 16 H 3.7680 -0.6989 1.9177 0
M  V30 17 H 3.9427 -2.0542 0.7093 0
M  V30 18 H 2.1086 -0.5000 0.1743 0
M  V30 19 C -4.3796 4.5365 -1.4770 0
M  V30 20 O -3.8197 4.7615 -0.1888 0
M  V30 21 C -4.6811 4.1475 0.6824 0
M  V30 22 O -4.7850 2.8301 0.5219 0
M  V30 23 C -3.7715 1.9837 0.7102 0
M  V30 24 C -2.4999 2.0307 0.0187 0
M  V30 25 H -3.6909 5.0171 -2.1931 0
M  V30 26 H -5.3773 5.0191 -1.4894 0
M  V30 27 H -4.5197 3.4867 -1.6983 0
M  V30 28 H -5.7038 4.5990 0.4747 0
M  V30 29 H -4.4633 4.4757 1.7430 0
M  V30 30 H -4.1817 0.9250 0.4732 0
M  V30 31 H -3.5541 1.9510 1.8447 0
M  V30 32 H -1.7892 1.2040 0.2979 0
M  V30 33 C -3.4058 -5.2933 -0.2272 0
M  V30 34 O -3.8630 -4.2977 -1.1346 0
M  V30 35 C -4.8039 -3.5882 -0.4350 0
M  V30 36 O -4.3356 -2.9576 0.6398 0
M  V30 37 C -3.4360 -1.9745 0.5822 0
M  V30 38 C -2.1180 -2.0771 -0.0092 0
M  V30 39 H -2.6381 -5.8686 -0.7729 0
M  V30 40 H -4.2780 -5.9265 0.0312 0
M  V30 41 H -3.0168 -4.8783 0.6932 0
M  V30 42 H -5.5649 -4.3539 -0.0776 0
M  V30 43 H -5.4034 -2.9357 -1.1384 0
M  V30 44 H -3.2285 -1.6570 1.6783 0
M  V30 45 H -3.9587 -1.0537 0.1193 0
M  V30 46 H -1.4978 -1.1418 0.0746 0
M  V30 END ATOM
M  V30 BEGIN BOND
M  V30 1 1 1 2
M  V30 2 1 2 3
M  V30 3 1 3 4
M  V30 4 1 4 1
M  V30 5 1 5 6
M  V30 6 1 6 7
M  V30 7 1 7 8
M  V30 8 1 8 9
M  V30 9 1 9 10
M  V30 10 1 5 11
M  V30 11 1 5 12
M  V30 12 1 5 13
M  V30 13 1 7 14
M  V30 14 1 7 15
M  V30 15 1 9 16
M  V30 16 1 9 17
M  V30 17 1 10 18
M  V30 18 1 19 20
M  V30 19 1 20 21
M  V30 20 1 21 22
M  V30 21 1 22 23
M  V30 22 1 23 24
M  V30 23 1 19 25
M  V30 24 1 19 26
M  V30 25 1 19 27
M  V30 26 1 21 28
M  V30 27 1 21 29
M  V30 28 1 23 30
M  V30 29 1 23 31
M  V30 30 1 24 32
M  V30 31 1 33 34
M  V30 32 1 34 35
M  V30 33 1 35 36
M  V30 34 1 36 37
M  V30 35 1 37 38
M  V30 36 1 33 39
M  V30 37 1 33 40
M  V30 38 1 33 41
M  V30 39 1 35 42
M  V30 40 1 35 43
M  V30 41 1 37 44
M  V30 42 1 37 45
M  V30 43 1 38 46
M  V30 44 1 2 10
M  V30 45 1 4 24
M  V30 46 1 3 38
M  V30 END BOND
M  V30 END CTAB
M  END

$$$$
