
     RDKit          3D

  0  0  0  0  0  0  0  0  0  0999 V3000
M  V30 BEGIN CTAB
M  V30 COUNTS 36 36 0 0 0
M  V30 BEGIN ATOM
M  V30 1 C -0.1606 0.5127 0.0350 0
M  V30 2 N -0.8008 1.6842 0.0350 0
M  V30 3 C -2.1367 1.6840 0.0350 0
M  V30 4 N -2.8177 0.5266 0.0350 0
M  V30 5 C -2.1869 -0.6586 0.0350 0
M  V30 6 N -0.8435 -0.6397 0.0350 0
M  V30 7 C 3.2692 0.3913 1.3378 0
M  V30 8 C 2.8257 0.0092 -0.0564 0
M  V30 9 C 1.5134 0.7328 -0.3118 0
M  V30 10 H 2.8771 1.3808 1.6479 0
M  V30 11 H 2.9712 -0.3872 2.0805 0
M  V30 12 H 4.3853 0.4608 1.3987 0
M  V30 13 H 3.5264 0.2986 -0.8408 0
M  V30 14 H 2.7004 -1.0830 -0.0770 0
M  V30 15 H 1.1282 0.5837 -1.3225 0
M  V30 16 H 1.6184 1.8247 -0.1466 0
M  V30 17 C -5.3252 3.1426 -0.6153 0
M  V30 18 C -4.4167 3.5401 0.5263 0
M  V30 19 C -3.0000 3.1903 0.1002 0
M  V30 20 H -4.8032 3.1566 -1.5932 0
M  V30 21 H -5.7756 2.1367 -0.4373 0
M  V30 22 H -6.1872 3.8517 -0.7074 0
M  V30 23 H -4.4420 4.6043 0.7648 0
M  V30 24 H -4.7289 2.9696 1.4129 0
M  V30 25 H -2.2433 3.4965 0.8253 0
M  V30 26 H -2.7463 3.6587 -0.8729 0
M  V30 27 C -4.1231 -3.6287 -0.7917 0
M  V30 28 C -4.1346 -2.9222 0.5452 0
M  V30 29 C -3.5930 -1.5222 0.3049 0
M  V30 30 H -4.2018 -2.9218 -1.6420 0
M  V30 31 H -3.2092 -4.2600 -0.9033 0
M  V30 32 H -4.9919 -4.3295 -0.8823 0
M  V30 33 H -5.1266 -2.8263 0.9889 0
M  V30 34 H -3.4931 -3.4961 1.2294 0
M  V30 35 H -3.6172 -0.8914 1.1959 0
M  V30 36 H -4.1622 -1.0032 -0.4935 0
M  V30 END ATOM
M  V30 BEGIN BOND
M  V30 1 2 1 2
M  V30 2 1 2 3
M  V30 3 2 3 4
M  V30 4 1 4 5
M  V30 5 2 5 6
M  V30 6 1 6 1
M  V30 7 1 7 8
M  V30 8 1 8 9
M  V30 9 1 7 10
M  V30 10 1 7 11
M  V30 11 1 7 12
M  V30 12 1 8 13
M  V30 13 1 8 14
M  V30 14 1 9 15
M  V30 15 1 9 16
M  V30 16 1 17 18
M  V30 17 1 18 19
M  V30 18 1 17 20
M  V30 19 1 17 21
M  V30 20 1 17 22
M  V30 21 1 18 23
M  V30 22 1 18 24
M  V30 23 1 19 25
M  V30 24 1 19 26
M  V30 25 1 27 28
M  V30 26 1 28 29
M  V30 27 1 27 30
M  V30 28 1 27 31
M  V30 29 1 27 32
M  V30 30 1 28 33
M  V30 31 1 28 34
M  V30 32 1 29 35
M  V30 33 1 29 36
M  V30 34 1 1 9
M  V30 35 1 3 19
M  V30 36 1 5 29
M  V30 END BOND
M  V30 END CTAB
M  END

$$$$
