
     RDKit          3D

  0  0  0  0  0  0  0  0  0  0999 V3000
M  V30 BEGIN CTAB
M  V30 COUNTS 45 45 0 0 0
M  V30 BEGIN ATOM
M  V30 1 C 2.5346 -0.1272 -0.0066 0 CHG=1
M  V30 2 C 1.2847 0.6177 -0.0066 0 CHG=1
M  V30 3 C 1.2512 -0.8721 -0.0066 0 CHG=1
M  V30 4 C 7.8102 1.3488 -0.7064 0
M  V30 5 O 7.5240 0.0680 -1.2551 0
M  V30 6 C 7.7927 -0.8170 -0.2439 0
M  V30 7 O 7.0292 -0.6711 0.8368 0
M  V30 8 C 5.7088 -0.8595 0.8356 0
M  V30 9 C 4.7620 -0.1565 -0.0050 0
M  V30 10 H 7.5888 2.0759 -1.5067 0
M  V30 11 H 8.8856 1.3577 -0.4383 0
M  V30 12 H 7.2457 1.5580 0.1927 0
M  V30 13 H 8.8675 -0.6135 0.0668 0
M  V30 14 H 7.8355 -1.8722 -0.6497 0
M  V30 15 H 5.3461 -0.6370 1.9146 0
M  V30 16 H 5.5208 -1.9923 0.7063 0
M  V30 17 H 3.6867 -0.4381 0.1713 0
M  V30 18 C -2.4411 4.2239 -1.4762 0
M  V30 19 O -1.8811 4.4489 -0.1880 0
M  V30 20 C -2.7426 3.8349 0.6832 0
M  V30 21 O -2.8465 2.5175 0.5227 0
M  V30 22 C -1.8330 1.6711 0.7110 0
M  V30 23 C -0.5614 1.7181 0.0195 0
M  V30 24 H -1.7524 4.7045 -2.1923 0
M  V30 25 H -3.4388 4.7065 -1.4886 0
M  V30 26 H -2.5812 3.1741 -1.6975 0
M  V30 27 H -3.7653 4.2864 0.4755 0
M  V30 28 H -2.5248 4.1631 1.7438 0
M  V30 29 H -2.2432 0.6124 0.4740 0
M  V30 30 H -1.6156 1.6384 1.8455 0
M  V30 31 H 0.1493 0.8914 0.2987 0
M  V30 32 C -1.8902 -5.2871 -0.2235 0
M  V30 33 O -2.3474 -4.2915 -1.1309 0
M  V30 34 C -3.2883 -3.5820 -0.4313 0
M  V30 35 O -2.8200 -2.9514 0.6434 0
M  V30 36 C -1.9204 -1.9683 0.5858 0
M  V30 37 C -0.6024 -2.0709 -0.0055 0
M  V30 38 H -1.1225 -5.8625 -0.7692 0
M  V30 39 H -2.7624 -5.9203 0.0348 0
M  V30 40 H -1.5013 -4.8721 0.6969 0
M  V30 41 H -4.0493 -4.3477 -0.0739 0
M  V30 42 H -3.8878 -2.9295 -1.1347 0
M  V30 43 H -1.7129 -1.6508 1.6819 0
M  V30 44 H -2.4431 -1.0475 0.1230 0
M  V30 45 H 0.0178 -1.1356 0.0783 0
M  V30 END ATOM
M  V30 BEGIN BOND
M  V30 1 1 1 2
M  V30 2 1 2 3
M  V30 3 1 3 1
M  V30 4 1 4 5
M  V30 5 1 5 6
M  V30 6 1 6 7
M  V30 7 1 7 8
M  V30 8 1 8 9
M  V30 9 1 4 10
M  V30 10 1 4 11
M  V30 11 1 4 12
M  V30 12 1 6 13
M  V30 13 1 6 14
M  V30 14 1 8 15
M  V30 15 1 8 16
M  V30 16 1 9 17
M  V30 17 1 18 19
M  V30 18 1 19 20
M  V30 19 1 20 21
M  V30 20 1 21 22
M  V30 21 1 22 23
M  V30 22 1 18 24
M  V30 23 1 18 25
M  V30 24 1 18 26
M  V30 25 1 20 27
M  V30 26 1 20 28
M  V30 27 1 22 29
M  V30 28 1 22 30
M  V30 29 1 23 31
M  V30 30 1 32 33
M  V30 31 1 33 34
M  V30 32 1 34 35
M  V30 33 1 35 36
M  V30 34 1 36 37
M  V30 35 1 32 38
M  V30 36 1 32 39
M  V30 37 1 32 40
M  V30 38 1 34 41
M  V30 39 1 34 42
M  V30 40 1 36 43
M  V30 41 1 36 44
M  V30 42 1 37 45
M  V30 43 1 1 9
M  V30 44 1 2 23
M  V30 45 1 3 37
M  V30 END BOND
M  V30 END CTAB
M  END

$$$$
