
     RDKit          3D

  0  0  0  0  0  0  0  0  0  0999 V3000
M  V30 BEGIN CTAB
M  V30 COUNTS 10 9 0 0 0
M  V30 BEGIN ATOM
M  V30 1 N -1.2779 0.4099 -0.0493 0 CHG=1
M  V30 2 Fe 2.4906 -0.5593 0.0535 0 CHG=1
M  V30 3 N 1.2457 0.3585 0.4099 0 CHG=1
M  V30 4 C 0.0625 0.3408 -0.4101 0 CHG=1
M  V30 5 Fe -4.4236 2.4374 0.1717 0 CHG=1
M  V30 6 N -2.9797 2.2256 -0.4522 0 CHG=1
M  V30 7 C -1.9184 1.6510 0.3326 0 CHG=1
M  V30 8 Fe -3.4864 -2.9937 -0.1309 0 CHG=1
M  V30 9 N -3.0896 -1.5253 -0.5844 0 CHG=1
M  V30 10 C -2.2261 -0.7134 0.2327 0 CHG=1
M  V30 END ATOM
M  V30 BEGIN BOND
M  V30 1 1 2 3
M  V30 2 1 3 4
M  V30 3 1 5 6
M  V30 4 1 6 7
M  V30 5 1 8 9
M  V30 6 1 9 10
M  V30 7 1 1 4
M  V30 8 1 1 7
M  V30 9 1 1 10
M  V30 END BOND
M  V30 END CTAB
M  END

$$$$
