
     RDKit          3D

  0  0  0  0  0  0  0  0  0  0999 V3000
M  V30 BEGIN CTAB
M  V30 COUNTS 154 172 0 0 0
M  V30 BEGIN ATOM
M  V30 1 Pd 0.4669 -2.3164 2.7675 0 CHG=2
M  V30 2 Pd 1.3526 2.2907 -5.2735 0 CHG=2
M  V30 3 C 6.8431 0.8075 -3.0291 0
M  V30 4 C 6.7596 1.4723 -4.0364 0
M  V30 5 C 6.7630 2.3476 -5.1396 0
M  V30 6 C 7.9701 2.7766 -5.6618 0
M  V30 7 C 8.0170 3.7375 -6.6773 0
M  V30 8 C 6.8667 4.3081 -7.1624 0
M  V30 9 C 5.6157 3.8944 -6.6696 0
M  V30 10 C 4.3964 4.4612 -7.1045 0
M  V30 11 C 3.2149 3.9937 -6.6081 0
M  V30 12 N 3.1623 2.9585 -5.7341 0
M  V30 13 C 4.2795 2.4271 -5.2774 0
M  V30 14 C 5.5490 2.8737 -5.6767 0
M  V30 15 H 8.8907 2.3744 -5.2675 0
M  V30 16 H 8.9770 4.0459 -7.0625 0
M  V30 17 H 6.9079 5.0756 -7.9193 0
M  V30 18 H 4.4136 5.2638 -7.8244 0
M  V30 19 H 2.2607 4.4319 -6.8933 0
M  V30 20 H 4.1899 1.6020 -4.5749 0
M  V30 21 C 6.9360 0.1158 -1.8021 0
M  V30 22 C 8.1907 -0.1938 -1.2672 0
M  V30 23 C 8.2751 -0.7993 -0.0270 0
M  V30 24 C 7.1308 -1.0975 0.6934 0
M  V30 25 C 5.8702 -0.7995 0.1698 0
M  V30 26 C 5.7835 -0.2011 -1.0860 0
M  V30 27 H 9.0850 0.0486 -1.8204 0
M  V30 28 H 9.2440 -1.0320 0.3882 0
M  V30 29 H 7.2251 -1.5301 1.6769 0
M  V30 30 H 4.8232 0.0038 -1.5312 0
M  V30 31 C 4.6479 -1.0918 0.9244 0
M  V30 32 C 4.5427 -2.1981 1.7737 0
M  V30 33 C 3.3484 -2.4561 2.4149 0
M  V30 34 N 2.2694 -1.6876 2.2405 0
M  V30 35 C 2.3575 -0.6005 1.4640 0
M  V30 36 C 3.5207 -0.2671 0.8078 0
M  V30 37 H 5.3762 -2.8674 1.9114 0
M  V30 38 H 3.2334 -3.3036 3.0844 0
M  V30 39 H 1.4529 0.0008 1.3849 0
M  V30 40 H 3.5698 0.6337 0.2177 0
M  V30 41 C 1.9775 -3.7056 -6.1810 0
M  V30 42 C 2.0023 -2.9499 -7.1255 0
M  V30 43 C 1.9203 -2.1605 -8.2886 0
M  V30 44 C 2.0239 -2.7642 -9.5290 0
M  V30 45 C 1.8268 -2.0344 -10.7061 0
M  V30 46 C 1.4912 -0.7042 -10.6639 0
M  V30 47 C 1.3860 -0.0453 -9.4253 0
M  V30 48 C 1.0159 1.3137 -9.3099 0
M  V30 49 C 0.9608 1.9005 -8.0794 0
M  V30 50 N 1.2978 1.2321 -6.9492 0
M  V30 51 C 1.6144 -0.0466 -7.0122 0
M  V30 52 C 1.6423 -0.7614 -8.2198 0
M  V30 53 H 2.2446 -3.8190 -9.5880 0
M  V30 54 H 1.9187 -2.5384 -11.6561 0
M  V30 55 H 1.3033 -0.1532 -11.5720 0
M  V30 56 H 0.7756 1.8736 -10.1994 0
M  V30 57 H 0.6437 2.9332 -7.9513 0
M  V30 58 H 1.8749 -0.5437 -6.0805 0
M  V30 59 C 1.8482 -4.5917 -5.0898 0
M  V30 60 C 1.9271 -5.9724 -5.2982 0
M  V30 61 C 1.7174 -6.8371 -4.2398 0
M  V30 62 C 1.4244 -6.3504 -2.9771 0
M  V30 63 C 1.3485 -4.9736 -2.7517 0
M  V30 64 C 1.5732 -4.1009 -3.8151 0
M  V30 65 H 2.1423 -6.3554 -6.2839 0
M  V30 66 H 1.7718 -7.9028 -4.4026 0
M  V30 67 H 1.2215 -7.0464 -2.1785 0
M  V30 68 H 1.5613 -3.0338 -3.6611 0
M  V30 69 C 1.0209 -4.4408 -1.4259 0
M  V30 70 C 1.4156 -5.0817 -0.2470 0
M  V30 71 C 1.1228 -4.5084 0.9735 0
M  V30 72 N 0.4818 -3.3403 1.0728 0
M  V30 73 C 0.0616 -2.7262 -0.0404 0
M  V30 74 C 0.2990 -3.2469 -1.2923 0
M  V30 75 H 1.9696 -6.0055 -0.2815 0
M  V30 76 H 1.4099 -4.9816 1.9080 0
M  V30 77 H -0.4777 -1.7917 0.1078 0
M  V30 78 H -0.0826 -2.7458 -2.1670 0
M  V30 79 C -5.0230 -0.8285 0.5250 0
M  V30 80 C -4.9391 -1.4988 1.5286 0
M  V30 81 C -4.9427 -2.3802 2.6269 0
M  V30 82 C -6.1501 -2.8143 3.1445 0
M  V30 83 C -6.1973 -3.7810 4.1545 0
M  V30 84 C -5.0469 -4.3521 4.6386 0
M  V30 85 C -3.7957 -3.9334 4.1506 0
M  V30 86 C -2.5762 -4.5002 4.5849 0
M  V30 87 C -1.3945 -4.0280 4.0933 0
M  V30 88 N -1.3421 -2.9882 3.2248 0
M  V30 89 C -2.4594 -2.4562 2.7688 0
M  V30 90 C -3.7289 -2.9071 3.1635 0
M  V30 91 H -7.0706 -2.4115 2.7506 0
M  V30 92 H -7.1574 -4.0933 4.5359 0
M  V30 93 H -5.0881 -5.1239 5.3911 0
M  V30 94 H -2.5933 -5.3066 5.3005 0
M  V30 95 H -0.4402 -4.4660 4.3782 0
M  V30 96 H -2.3698 -1.6271 2.0711 0
M  V30 97 C -5.1161 -0.1304 -0.6982 0
M  V30 98 C -6.3706 0.1891 -1.2276 0
M  V30 99 C -6.4555 0.8011 -2.4647 0
M  V30 100 C -5.3117 1.0961 -3.1873 0
M  V30 101 C -4.0513 0.7882 -2.6693 0
M  V30 102 C -3.9641 0.1834 -1.4166 0
M  V30 103 H -7.2646 -0.0508 -0.6728 0
M  V30 104 H -7.4243 1.0414 -2.8757 0
M  V30 105 H -5.4067 1.5338 -4.1684 0
M  V30 106 H -3.0035 -0.0295 -0.9757 0
M  V30 107 C -2.8296 1.0772 -3.4261 0
M  V30 108 C -2.7207 2.1871 -4.2701 0
M  V30 109 C -1.5267 2.4419 -4.9133 0
M  V30 110 N -0.4512 1.6669 -4.7454 0
M  V30 111 C -0.5434 0.5762 -3.9743 0
M  V30 112 C -1.7066 0.2457 -3.3168 0
M  V30 113 H -3.5509 2.8616 -4.4023 0
M  V30 114 H -1.4089 3.2922 -5.5788 0
M  V30 115 H 0.3581 -0.0303 -3.9006 0
M  V30 116 H -1.7590 -0.6579 -2.7315 0
M  V30 117 C -0.1327 3.6839 3.6796 0
M  V30 118 C -0.1618 2.9273 4.6233 0
M  V30 119 C -0.0844 2.1365 5.7858 0
M  V30 120 C -0.1846 2.7399 7.0267 0
M  V30 121 C 0.0080 2.0081 8.2032 0
M  V30 122 C 0.3358 0.6760 8.1600 0
M  V30 123 C 0.4374 0.0175 6.9210 0
M  V30 124 C 0.8000 -1.3433 6.8045 0
M  V30 125 C 0.8524 -1.9295 5.5737 0
M  V30 126 N 0.5195 -1.2585 4.4438 0
M  V30 127 C 0.2098 0.0219 4.5076 0
M  V30 128 C 0.1855 0.7359 5.7159 0
M  V30 129 H -0.3992 3.7960 7.0864 0
M  V30 130 H -0.0811 2.5119 9.1536 0
M  V30 131 H 0.5203 0.1232 9.0677 0
M  V30 132 H 1.0369 -1.9054 7.6938 0
M  V30 133 H 1.1640 -2.9638 5.4450 0
M  V30 134 H -0.0475 0.5213 3.5765 0
M  V30 135 C 0.0016 4.5699 2.5890 0
M  V30 136 C -0.0644 5.9511 2.7991 0
M  V30 137 C 0.1498 6.8150 1.7409 0
M  V30 138 C 0.4347 6.3271 0.4767 0
M  V30 139 C 0.4978 4.9499 0.2499 0
M  V30 140 C 0.2684 4.0781 1.3129 0
M  V30 141 H -0.2732 6.3349 3.7859 0
M  V30 142 H 0.1053 7.8809 1.9050 0
M  V30 143 H 0.6414 7.0219 -0.3217 0
M  V30 144 H 0.2703 3.0111 1.1579 0
M  V30 145 C 0.8175 4.4156 -1.0773 0
M  V30 146 C 0.4254 5.0607 -2.2548 0
M  V30 147 C 0.7113 4.4863 -3.4764 0
M  V30 148 N 1.3430 3.3134 -3.5781 0
M  V30 149 C 1.7603 2.6947 -2.4664 0
M  V30 150 C 1.5293 3.2159 -1.2135 0
M  V30 151 H -0.1212 5.9889 -2.2181 0
M  V30 152 H 0.4260 4.9625 -4.4100 0
M  V30 153 H 2.2916 1.7558 -2.6165 0
M  V30 154 H 1.9081 2.7109 -0.3399 0
M  V30 END ATOM
M  V30 BEGIN BOND
M  V30 1 3 3 4
M  V30 2 1 4 5
M  V30 3 2 5 6
M  V30 4 1 6 7
M  V30 5 2 7 8
M  V30 6 1 8 9
M  V30 7 2 9 10
M  V30 8 1 10 11
M  V30 9 2 11 12
M  V30 10 1 12 13
M  V30 11 2 13 14
M  V30 12 1 14 5
M  V30 13 1 14 9
M  V30 14 1 6 15
M  V30 15 1 7 16
M  V30 16 1 8 17
M  V30 17 1 10 18
M  V30 18 1 11 19
M  V30 19 1 13 20
M  V30 20 2 21 22
M  V30 21 1 22 23
M  V30 22 2 23 24
M  V30 23 1 24 25
M  V30 24 2 25 26
M  V30 25 1 26 21
M  V30 26 1 22 27
M  V30 27 1 23 28
M  V30 28 1 24 29
M  V30 29 1 26 30
M  V30 30 2 31 32
M  V30 31 1 32 33
M  V30 32 2 33 34
M  V30 33 1 34 35
M  V30 34 2 35 36
M  V30 35 1 36 31
M  V30 36 1 32 37
M  V30 37 1 33 38
M  V30 38 1 35 39
M  V30 39 1 36 40
M  V30 40 1 3 21
M  V30 41 1 25 31
M  V30 42 3 41 42
M  V30 43 1 42 43
M  V30 44 2 43 44
M  V30 45 1 44 45
M  V30 46 2 45 46
M  V30 47 1 46 47
M  V30 48 2 47 48
M  V30 49 1 48 49
M  V30 50 2 49 50
M  V30 51 1 50 51
M  V30 52 2 51 52
M  V30 53 1 52 43
M  V30 54 1 52 47
M  V30 55 1 44 53
M  V30 56 1 45 54
M  V30 57 1 46 55
M  V30 58 1 48 56
M  V30 59 1 49 57
M  V30 60 1 51 58
M  V30 61 2 59 60
M  V30 62 1 60 61
M  V30 63 2 61 62
M  V30 64 1 62 63
M  V30 65 2 63 64
M  V30 66 1 64 59
M  V30 67 1 60 65
M  V30 68 1 61 66
M  V30 69 1 62 67
M  V30 70 1 64 68
M  V30 71 2 69 70
M  V30 72 1 70 71
M  V30 73 2 71 72
M  V30 74 1 72 73
M  V30 75 2 73 74
M  V30 76 1 74 69
M  V30 77 1 70 75
M  V30 78 1 71 76
M  V30 79 1 73 77
M  V30 80 1 74 78
M  V30 81 1 41 59
M  V30 82 1 63 69
M  V30 83 3 79 80
M  V30 84 1 80 81
M  V30 85 2 81 82
M  V30 86 1 82 83
M  V30 87 2 83 84
M  V30 88 1 84 85
M  V30 89 2 85 86
M  V30 90 1 86 87
M  V30 91 2 87 88
M  V30 92 1 88 89
M  V30 93 2 89 90
M  V30 94 1 90 81
M  V30 95 1 90 85
M  V30 96 1 82 91
M  V30 97 1 83 92
M  V30 98 1 84 93
M  V30 99 1 86 94
M  V30 100 1 87 95
M  V30 101 1 89 96
M  V30 102 2 97 98
M  V30 103 1 98 99
M  V30 104 2 99 100
M  V30 105 1 100 101
M  V30 106 2 101 102
M  V30 107 1 102 97
M  V30 108 1 98 103
M  V30 109 1 99 104
M  V30 110 1 100 105
M  V30 111 1 102 106
M  V30 112 2 107 108
M  V30 113 1 108 109
M  V30 114 2 109 110
M  V30 115 1 110 111
M  V30 116 2 111 112
M  V30 117 1 112 107
M  V30 118 1 108 113
M  V30 119 1 109 114
M  V30 120 1 111 115
M  V30 121 1 112 116
M  V30 122 1 79 97
M  V30 123 1 101 107
M  V30 124 3 117 118
M  V30 125 1 118 119
M  V30 126 2 119 120
M  V30 127 1 120 121
M  V30 128 2 121 122
M  V30 129 1 122 123
M  V30 130 2 123 124
M  V30 131 1 124 125
M  V30 132 2 125 126
M  V30 133 1 126 127
M  V30 134 2 127 128
M  V30 135 1 128 119
M  V30 136 1 128 123
M  V30 137 1 120 129
M  V30 138 1 121 130
M  V30 139 1 122 131
M  V30 140 1 124 132
M  V30 141 1 125 133
M  V30 142 1 127 134
M  V30 143 2 135 136
M  V30 144 1 136 137
M  V30 145 2 137 138
M  V30 146 1 138 139
M  V30 147 2 139 140
M  V30 148 1 140 135
M  V30 149 1 136 141
M  V30 150 1 137 142
M  V30 151 1 138 143
M  V30 152 1 140 144
M  V30 153 2 145 146
M  V30 154 1 146 147
M  V30 155 2 147 148
M  V30 156 1 148 149
M  V30 157 2 149 150
M  V30 158 1 150 145
M  V30 159 1 146 151
M  V30 160 1 147 152
M  V30 161 1 149 153
M  V30 162 1 150 154
M  V30 163 1 117 135
M  V30 164 1 139 145
M  V30 165 9 34 1
M  V30 166 9 72 1
M  V30 167 9 88 1
M  V30 168 9 126 1
M  V30 169 9 12 2
M  V30 170 9 50 2
M  V30 171 9 110 2
M  V30 172 9 148 2
M  V30 END BOND
M  V30 END CTAB
M  END

$$$$
