
     RDKit          3D

  0  0  0  0  0  0  0  0  0  0999 V3000
M  V30 BEGIN CTAB
M  V30 COUNTS 186 208 0 0 0
M  V30 BEGIN ATOM
M  V30 1 Pd 0.5010 5.5294 3.0765 0 CHG=2
M  V30 2 Pd -0.9080 -5.7798 -4.8541 0 CHG=2
M  V30 3 C 5.0276 -2.2071 -1.4694 0
M  V30 4 C 4.9058 -3.2134 -2.1299 0
M  V30 5 C 4.7156 -4.4056 -2.8531 0
M  V30 6 C 5.7123 -5.3632 -2.9301 0
M  V30 7 C 5.4993 -6.5735 -3.5998 0
M  V30 8 C 4.2893 -6.8568 -4.1800 0
M  V30 9 C 3.2484 -5.9054 -4.1279 0
M  V30 10 C 1.9688 -6.1531 -4.6608 0
M  V30 11 N 0.9968 -5.2669 -4.6136 0
M  V30 12 C 1.2193 -4.0419 -4.0736 0
M  V30 13 C 2.4154 -3.7114 -3.5043 0
M  V30 14 C 3.4640 -4.6532 -3.4849 0
M  V30 15 H 6.6659 -5.1743 -2.4608 0
M  V30 16 H 6.3013 -7.2942 -3.6434 0
M  V30 17 H 4.1232 -7.7995 -4.6764 0
M  V30 18 H 1.7455 -7.1091 -5.1279 0
M  V30 19 H 0.3829 -3.3475 -4.1246 0
M  V30 20 H 2.5740 -2.7413 -3.0618 0
M  V30 21 C 5.1475 -1.0378 -0.6946 0
M  V30 22 C 6.3513 -0.7367 -0.0470 0
M  V30 23 C 6.4616 0.4065 0.7133 0
M  V30 24 C 5.3694 1.2728 0.8458 0
M  V30 25 C 4.1645 0.9684 0.2019 0
M  V30 26 C 4.0552 -0.1720 -0.5610 0
M  V30 27 H 7.1942 -1.4037 -0.1505 0
M  V30 28 H 7.3913 0.6419 1.2095 0
M  V30 29 H 3.3289 1.6427 0.2985 0
M  V30 30 H 3.1303 -0.4052 -1.0642 0
M  V30 31 C 5.5000 2.4554 1.5978 0
M  V30 32 C 5.6175 3.4871 2.2200 0
M  V30 33 C 5.8372 4.7120 2.8750 0
M  V30 34 C 7.1303 5.1201 3.1528 0
M  V30 35 C 7.3844 6.3656 3.7347 0
M  V30 36 C 6.3594 7.2299 4.0309 0
M  V30 37 C 5.0284 6.8540 3.7763 0
M  V30 38 C 3.9282 7.7006 4.0418 0
M  V30 39 C 2.6597 7.2654 3.7905 0
M  V30 40 N 2.4066 6.0206 3.3159 0
M  V30 41 C 3.4073 5.2103 3.0325 0
M  V30 42 C 4.7506 5.5729 3.2167 0
M  V30 43 H 7.9550 4.4697 2.9041 0
M  V30 44 H 8.4056 6.6504 3.9373 0
M  V30 45 H 6.5608 8.1997 4.4582 0
M  V30 46 H 4.1039 8.6872 4.4398 0
M  V30 47 H 1.7924 7.9005 3.9619 0
M  V30 48 H 3.1582 4.2226 2.6506 0
M  V30 49 C 0.4748 -4.5270 2.6323 0
M  V30 50 C 0.4054 -5.5114 1.9324 0
M  V30 51 C 0.3704 -6.6286 1.0763 0
M  V30 52 C 0.8222 -7.8676 1.4958 0
M  V30 53 C 0.8440 -8.9609 0.6220 0
M  V30 54 C 0.4372 -8.8321 -0.6812 0
M  V30 55 C -0.0395 -7.5877 -1.1458 0
M  V30 56 C -0.4324 -7.3783 -2.4815 0
M  V30 57 N -0.8830 -6.2201 -2.9158 0
M  V30 58 C -1.0242 -5.1803 -2.0556 0
M  V30 59 C -0.6434 -5.2698 -0.7473 0
M  V30 60 C -0.1035 -6.4764 -0.2577 0
M  V30 61 H 1.1711 -7.9887 2.5101 0
M  V30 62 H 1.2008 -9.9122 0.9853 0
M  V30 63 H 0.4760 -9.6720 -1.3563 0
M  V30 64 H -0.3640 -8.1869 -3.2054 0
M  V30 65 H -1.4620 -4.2776 -2.4759 0
M  V30 66 H -0.7465 -4.4303 -0.0786 0
M  V30 67 C 0.5461 -3.3640 3.4232 0
M  V30 68 C 0.5709 -3.4529 4.8195 0
M  V30 69 C 0.6176 -2.3083 5.5845 0
M  V30 70 C 0.6463 -1.0499 4.9704 0
M  V30 71 C 0.6430 -0.9634 3.5735 0
M  V30 72 C 0.5897 -2.1066 2.8088 0
M  V30 73 H 0.5438 -4.4227 5.2936 0
M  V30 74 H 0.6267 -2.3753 6.6622 0
M  V30 75 H 0.6787 0.0059 3.1030 0
M  V30 76 H 0.5834 -2.0448 1.7321 0
M  V30 77 C 0.6430 0.1113 5.7660 0
M  V30 78 C 0.5965 1.1037 6.4577 0
M  V30 79 C 0.4708 2.2028 7.3258 0
M  V30 80 C 0.4027 1.9916 8.6923 0
M  V30 81 C 0.2103 3.0554 9.5787 0
M  V30 82 C 0.0639 4.3409 9.1189 0
M  V30 83 C 0.1323 4.6050 7.7393 0
M  V30 84 C -0.0286 5.9009 7.1985 0
M  V30 85 C 0.0641 6.0910 5.8507 0
M  V30 86 N 0.3362 5.0729 4.9975 0
M  V30 87 C 0.4723 3.8462 5.4610 0
M  V30 88 C 0.3617 3.5355 6.8251 0
M  V30 89 H 0.4910 0.9870 9.0769 0
M  V30 90 H 0.1640 2.8527 10.6377 0
M  V30 91 H -0.1054 5.1566 9.8041 0
M  V30 92 H -0.2273 6.7290 7.8598 0
M  V30 93 H -0.0770 7.0715 5.3996 0
M  V30 94 H 0.6864 3.0603 4.7397 0
M  V30 95 C -5.4042 2.1235 -0.5372 0
M  V30 96 C -5.2723 3.1376 0.1093 0
M  V30 97 C -5.0677 4.3354 0.8202 0
M  V30 98 C -6.0272 5.3325 0.8359 0
M  V30 99 C -5.7944 6.5470 1.4918 0
M  V30 100 C -4.6012 6.7928 2.1213 0
M  V30 101 C -3.6001 5.7980 2.1366 0
M  V30 102 C -2.3392 6.0019 2.7289 0
M  V30 103 N -1.4061 5.0735 2.7497 0
M  V30 104 C -1.6554 3.8479 2.2236 0
M  V30 105 C -2.8343 3.5574 1.5989 0
M  V30 106 C -3.8376 4.5433 1.5065 0
M  V30 107 H -6.9654 5.1731 0.3265 0
M  V30 108 H -6.5670 7.3003 1.4849 0
M  V30 109 H -4.4185 7.7380 2.6069 0
M  V30 110 H -2.0982 6.9578 3.1879 0
M  V30 111 H -0.8583 3.1164 2.3361 0
M  V30 112 H -3.0128 2.5839 1.1713 0
M  V30 113 C -5.5290 0.9352 -1.2826 0
M  V30 114 C -4.3804 0.2461 -1.6905 0
M  V30 115 C -4.4924 -0.9251 -2.4050 0
M  V30 116 C -5.7551 -1.4390 -2.7218 0
M  V30 117 C -6.9036 -0.7415 -2.3265 0
M  V30 118 C -6.7919 0.4340 -1.6172 0
M  V30 119 H -3.4097 0.6441 -1.4410 0
M  V30 120 H -3.6098 -1.4565 -2.7220 0
M  V30 121 H -7.8777 -1.1344 -2.5768 0
M  V30 122 H -7.6779 0.9687 -1.3084 0
M  V30 123 C -5.8864 -2.6642 -3.4020 0
M  V30 124 C -6.0101 -3.7375 -3.9481 0
M  V30 125 C -6.2377 -5.0047 -4.5138 0
M  V30 126 C -7.5358 -5.4438 -4.7101 0
M  V30 127 C -7.7976 -6.7239 -5.2073 0
M  V30 128 C -6.7743 -7.5921 -5.4981 0
M  V30 129 C -5.4391 -7.1880 -5.3208 0
M  V30 130 C -4.3404 -8.0376 -5.5830 0
M  V30 131 C -3.0683 -7.5779 -5.4041 0
M  V30 132 N -2.8117 -6.3082 -5.0039 0
M  V30 133 C -3.8098 -5.4917 -4.7295 0
M  V30 134 C -5.1551 -5.8740 -4.8467 0
M  V30 135 H -8.3580 -4.7885 -4.4664 0
M  V30 136 H -8.8225 -7.0312 -5.3489 0
M  V30 137 H -6.9805 -8.5865 -5.8616 0
M  V30 138 H -4.5201 -9.0460 -5.9201 0
M  V30 139 H -2.2007 -8.2128 -5.5751 0
M  V30 140 H -3.5569 -4.4834 -4.4084 0
M  V30 141 C -0.5970 4.2589 -4.4482 0
M  V30 142 C -0.5113 5.2485 -3.7574 0
M  V30 143 C -0.4629 6.3734 -2.9131 0
M  V30 144 C -0.8403 7.6258 -3.3664 0
M  V30 145 C -0.8480 8.7311 -2.5080 0
M  V30 146 C -0.5040 8.6024 -1.1867 0
M  V30 147 C -0.1087 7.3436 -0.6860 0
M  V30 148 C 0.2097 7.1340 0.6694 0
M  V30 149 N 0.5793 5.9609 1.1382 0
M  V30 150 C 0.7078 4.9028 0.2982 0
M  V30 151 C 0.3960 4.9931 -1.0279 0
M  V30 152 C -0.0571 6.2185 -1.5573 0
M  V30 153 H -1.1387 7.7486 -4.3965 0
M  V30 154 H -1.1436 9.6929 -2.8981 0
M  V30 155 H -0.5321 9.4528 -0.5243 0
M  V30 156 H 0.1482 7.9545 1.3800 0
M  V30 157 H 1.0727 3.9839 0.7531 0
M  V30 158 H 0.4845 4.1405 -1.6817 0
M  V30 159 C -0.7043 3.0958 -5.2340 0
M  V30 160 C -0.4199 1.8444 -4.6739 0
M  V30 161 C -0.5311 0.7032 -5.4353 0
M  V30 162 C -0.9253 0.7861 -6.7758 0
M  V30 163 C -1.2108 2.0373 -7.3359 0
M  V30 164 C -1.1031 3.1791 -6.5732 0
M  V30 165 H -0.1093 1.7841 -3.6429 0
M  V30 166 H -0.3027 -0.2609 -5.0104 0
M  V30 167 H -1.5140 2.1010 -8.3704 0
M  V30 168 H -1.3217 4.1440 -7.0057 0
M  V30 169 C -1.0063 -0.3727 -7.5709 0
M  V30 170 C -1.0475 -1.3674 -8.2593 0
M  V30 171 C -1.0216 -2.4748 -9.1258 0
M  V30 172 C -1.0411 -2.2757 -10.4954 0
M  V30 173 C -0.9408 -3.3518 -11.3823 0
M  V30 174 C -0.8007 -4.6375 -10.9209 0
M  V30 175 C -0.7865 -4.8892 -9.5374 0
M  V30 176 C -0.6296 -6.1851 -8.9954 0
M  V30 177 C -0.6458 -6.3624 -7.6426 0
M  V30 178 N -0.8398 -5.3309 -6.7838 0
M  V30 179 C -0.9654 -4.1039 -7.2496 0
M  V30 180 C -0.9242 -3.8065 -8.6206 0
M  V30 181 H -1.1229 -1.2717 -10.8827 0
M  V30 182 H -0.9597 -3.1587 -12.4441 0
M  V30 183 H -0.7001 -5.4628 -11.6082 0
M  V30 184 H -0.4955 -7.0238 -9.6597 0
M  V30 185 H -0.5046 -7.3432 -7.1923 0
M  V30 186 H -1.1155 -3.3068 -6.5247 0
M  V30 END ATOM
M  V30 BEGIN BOND
M  V30 1 3 3 4
M  V30 2 1 4 5
M  V30 3 2 5 6
M  V30 4 1 6 7
M  V30 5 2 7 8
M  V30 6 1 8 9
M  V30 7 2 9 10
M  V30 8 1 10 11
M  V30 9 2 11 12
M  V30 10 1 12 13
M  V30 11 2 13 14
M  V30 12 1 14 5
M  V30 13 1 14 9
M  V30 14 1 6 15
M  V30 15 1 7 16
M  V30 16 1 8 17
M  V30 17 1 10 18
M  V30 18 1 12 19
M  V30 19 1 13 20
M  V30 20 2 21 22
M  V30 21 1 22 23
M  V30 22 2 23 24
M  V30 23 1 24 25
M  V30 24 2 25 26
M  V30 25 1 26 21
M  V30 26 1 22 27
M  V30 27 1 23 28
M  V30 28 1 25 29
M  V30 29 1 26 30
M  V30 30 3 31 32
M  V30 31 1 32 33
M  V30 32 2 33 34
M  V30 33 1 34 35
M  V30 34 2 35 36
M  V30 35 1 36 37
M  V30 36 2 37 38
M  V30 37 1 38 39
M  V30 38 2 39 40
M  V30 39 1 40 41
M  V30 40 2 41 42
M  V30 41 1 42 33
M  V30 42 1 42 37
M  V30 43 1 34 43
M  V30 44 1 35 44
M  V30 45 1 36 45
M  V30 46 1 38 46
M  V30 47 1 39 47
M  V30 48 1 41 48
M  V30 49 1 3 21
M  V30 50 1 24 31
M  V30 51 3 49 50
M  V30 52 1 50 51
M  V30 53 2 51 52
M  V30 54 1 52 53
M  V30 55 2 53 54
M  V30 56 1 54 55
M  V30 57 2 55 56
M  V30 58 1 56 57
M  V30 59 2 57 58
M  V30 60 1 58 59
M  V30 61 2 59 60
M  V30 62 1 60 51
M  V30 63 1 60 55
M  V30 64 1 52 61
M  V30 65 1 53 62
M  V30 66 1 54 63
M  V30 67 1 56 64
M  V30 68 1 58 65
M  V30 69 1 59 66
M  V30 70 2 67 68
M  V30 71 1 68 69
M  V30 72 2 69 70
M  V30 73 1 70 71
M  V30 74 2 71 72
M  V30 75 1 72 67
M  V30 76 1 68 73
M  V30 77 1 69 74
M  V30 78 1 71 75
M  V30 79 1 72 76
M  V30 80 3 77 78
M  V30 81 1 78 79
M  V30 82 2 79 80
M  V30 83 1 80 81
M  V30 84 2 81 82
M  V30 85 1 82 83
M  V30 86 2 83 84
M  V30 87 1 84 85
M  V30 88 2 85 86
M  V30 89 1 86 87
M  V30 90 2 87 88
M  V30 91 1 88 79
M  V30 92 1 88 83
M  V30 93 1 80 89
M  V30 94 1 81 90
M  V30 95 1 82 91
M  V30 96 1 84 92
M  V30 97 1 85 93
M  V30 98 1 87 94
M  V30 99 1 49 67
M  V30 100 1 70 77
M  V30 101 3 95 96
M  V30 102 1 96 97
M  V30 103 2 97 98
M  V30 104 1 98 99
M  V30 105 2 99 100
M  V30 106 1 100 101
M  V30 107 2 101 102
M  V30 108 1 102 103
M  V30 109 2 103 104
M  V30 110 1 104 105
M  V30 111 2 105 106
M  V30 112 1 106 97
M  V30 113 1 106 101
M  V30 114 1 98 107
M  V30 115 1 99 108
M  V30 116 1 100 109
M  V30 117 1 102 110
M  V30 118 1 104 111
M  V30 119 1 105 112
M  V30 120 2 113 114
M  V30 121 1 114 115
M  V30 122 2 115 116
M  V30 123 1 116 117
M  V30 124 2 117 118
M  V30 125 1 118 113
M  V30 126 1 114 119
M  V30 127 1 115 120
M  V30 128 1 117 121
M  V30 129 1 118 122
M  V30 130 3 123 124
M  V30 131 1 124 125
M  V30 132 2 125 126
M  V30 133 1 126 127
M  V30 134 2 127 128
M  V30 135 1 128 129
M  V30 136 2 129 130
M  V30 137 1 130 131
M  V30 138 2 131 132
M  V30 139 1 132 133
M  V30 140 2 133 134
M  V30 141 1 134 125
M  V30 142 1 134 129
M  V30 143 1 126 135
M  V30 144 1 127 136
M  V30 145 1 128 137
M  V30 146 1 130 138
M  V30 147 1 131 139
M  V30 148 1 133 140
M  V30 149 1 95 113
M  V30 150 1 116 123
M  V30 151 3 141 142
M  V30 152 1 142 143
M  V30 153 2 143 144
M  V30 154 1 144 145
M  V30 155 2 145 146
M  V30 156 1 146 147
M  V30 157 2 147 148
M  V30 158 1 148 149
M  V30 159 2 149 150
M  V30 160 1 150 151
M  V30 161 2 151 152
M  V30 162 1 152 143
M  V30 163 1 152 147
M  V30 164 1 144 153
M  V30 165 1 145 154
M  V30 166 1 146 155
M  V30 167 1 148 156
M  V30 168 1 150 157
M  V30 169 1 151 158
M  V30 170 2 159 160
M  V30 171 1 160 161
M  V30 172 2 161 162
M  V30 173 1 162 163
M  V30 174 2 163 164
M  V30 175 1 164 159
M  V30 176 1 160 165
M  V30 177 1 161 166
M  V30 178 1 163 167
M  V30 179 1 164 168
M  V30 180 3 169 170
M  V30 181 1 170 171
M  V30 182 2 171 172
M  V30 183 1 172 173
M  V30 184 2 173 174
M  V30 185 1 174 175
M  V30 186 2 175 176
M  V30 187 1 176 177
M  V30 188 2 177 178
M  V30 189 1 178 179
M  V30 190 2 179 180
M  V30 191 1 180 171
M  V30 192 1 180 175
M  V30 193 1 172 181
M  V30 194 1 173 182
M  V30 195 1 174 183
M  V30 196 1 176 184
M  V30 197 1 177 185
M  V30 198 1 179 186
M  V30 199 1 141 159
M  V30 200 1 162 169
M  V30 201 9 40 1
M  V30 202 9 86 1
M  V30 203 9 103 1
M  V30 204 9 149 1
M  V30 205 9 11 2
M  V30 206 9 57 2
M  V30 207 9 132 2
M  V30 208 9 178 2
M  V30 END BOND
M  V30 END CTAB
M  END

$$$$
