
     RDKit          3D

  0  0  0  0  0  0  0  0  0  0999 V3000
M  V30 BEGIN CTAB
M  V30 COUNTS 186 208 0 0 0
M  V30 BEGIN ATOM
M  V30 1 Pd 0.5010 6.2910 0.6804 0 CHG=2
M  V30 2 Pd -0.9080 -7.2138 -2.2202 0 CHG=2
M  V30 3 C 5.0276 -2.6051 -0.4939 0
M  V30 4 C 4.9058 -3.7892 -0.7104 0
M  V30 5 C 4.7156 -5.1689 -0.9122 0
M  V30 6 C 5.7123 -6.0809 -0.6103 0
M  V30 7 C 5.4993 -7.4564 -0.7558 0
M  V30 8 C 4.2893 -7.9433 -1.1799 0
M  V30 9 C 3.2484 -7.0467 -1.5024 0
M  V30 10 C 1.9688 -7.4824 -1.8967 0
M  V30 11 N 0.9968 -6.6478 -2.1984 0
M  V30 12 C 1.2193 -5.3092 -2.1780 0
M  V30 13 C 2.4154 -4.7831 -1.7824 0
M  V30 14 C 3.4640 -5.6430 -1.3978 0
M  V30 15 H 6.6659 -5.7241 -0.2516 0
M  V30 16 H 6.3013 -8.1372 -0.5153 0
M  V30 17 H 4.1232 -9.0049 -1.2700 0
M  V30 18 H 1.7455 -8.5448 -1.9547 0
M  V30 19 H 0.3829 -4.6894 -2.4954 0
M  V30 20 H 2.5740 -3.7172 -1.7526 0
M  V30 21 C 5.1475 -1.2264 -0.2356 0
M  V30 22 C 6.3513 -0.6969 0.2436 0
M  V30 23 C 6.4616 0.6522 0.4987 0
M  V30 24 C 5.3694 1.5017 0.2834 0
M  V30 25 C 4.1645 0.9706 -0.1912 0
M  V30 26 C 4.0552 -0.3769 -0.4497 0
M  V30 27 H 7.1942 -1.3515 0.4080 0
M  V30 28 H 7.3913 1.0622 0.8641 0
M  V30 29 H 3.3289 1.6293 -0.3648 0
M  V30 30 H 3.1303 -0.7876 -0.8224 0
M  V30 31 C 5.5000 2.8838 0.5155 0
M  V30 32 C 5.6175 4.0763 0.6868 0
M  V30 33 C 5.8372 5.4596 0.8131 0
M  V30 34 C 7.1303 5.9437 0.9101 0
M  V30 35 C 7.3844 7.3175 0.9610 0
M  V30 36 C 6.3594 8.2289 0.8972 0
M  V30 37 C 5.0284 7.7835 0.8091 0
M  V30 38 C 3.9282 8.6667 0.7240 0
M  V30 39 C 2.6597 8.1680 0.6620 0
M  V30 40 N 2.4066 6.8366 0.7096 0
M  V30 41 C 3.4073 5.9799 0.7641 0
M  V30 42 C 4.7506 6.3856 0.7926 0
M  V30 43 H 7.9550 5.2478 0.9343 0
M  V30 44 H 8.4056 7.6587 1.0367 0
M  V30 45 H 6.5608 9.2885 0.9132 0
M  V30 46 H 4.1039 9.7304 0.7064 0
M  V30 47 H 1.7924 8.8197 0.5725 0
M  V30 48 H 3.1582 4.9215 0.7970 0
M  V30 49 C 0.4748 -3.1446 4.1874 0
M  V30 50 C 0.4054 -4.3238 3.9261 0
M  V30 51 C 0.3704 -5.6862 3.5726 0
M  V30 52 C 0.8222 -6.6640 4.4415 0
M  V30 53 C 0.8440 -8.0113 4.0624 0
M  V30 54 C 0.4372 -8.4002 2.8120 0
M  V30 55 C -0.0395 -7.4349 1.8994 0
M  V30 56 C -0.4324 -7.7622 0.5876 0
M  V30 57 N -0.8830 -6.8645 -0.2634 0
M  V30 58 C -1.0242 -5.5719 0.1240 0
M  V30 59 C -0.6434 -5.1448 1.3638 0
M  V30 60 C -0.1035 -6.0655 2.2847 0
M  V30 61 H 1.1711 -6.3806 5.4229 0
M  V30 62 H 1.2008 -8.7461 4.7675 0
M  V30 63 H 0.4760 -9.4367 2.5172 0
M  V30 64 H -0.3640 -8.7889 0.2358 0
M  V30 65 H -1.4620 -4.9041 -0.6147 0
M  V30 66 H -0.7465 -4.1112 1.6528 0
M  V30 67 C 0.5461 -1.7654 4.4630 0
M  V30 68 C 0.5709 -1.3035 5.7837 0
M  V30 69 C 0.6176 0.0486 6.0426 0
M  V30 70 C 0.6463 0.9686 4.9869 0
M  V30 71 C 0.6430 0.5043 3.6666 0
M  V30 72 C 0.5897 -0.8465 3.4074 0
M  V30 73 H 0.5438 -2.0122 6.5980 0
M  V30 74 H 0.6267 0.4066 7.0613 0
M  V30 75 H 0.6787 1.2138 2.8558 0
M  V30 76 H 0.5834 -1.2089 2.3917 0
M  V30 77 C 0.6430 2.3479 5.2675 0
M  V30 78 C 0.5965 3.5313 5.5181 0
M  V30 79 C 0.4708 4.8817 5.8897 0
M  V30 80 C 0.4027 5.2193 7.2306 0
M  V30 81 C 0.2103 6.5443 7.6327 0
M  V30 82 C 0.0639 7.5493 6.7086 0
M  V30 83 C 0.1323 7.2553 5.3351 0
M  V30 84 C -0.0286 8.2383 4.3324 0
M  V30 85 C 0.0641 7.8885 3.0169 0
M  V30 86 N 0.3362 6.6186 2.6275 0
M  V30 87 C 0.4723 5.6692 3.5321 0
M  V30 88 C 0.3617 5.9142 4.9096 0
M  V30 89 H 0.4910 4.4438 7.9760 0
M  V30 90 H 0.1640 6.7700 8.6871 0
M  V30 91 H -0.1054 8.5674 7.0221 0
M  V30 92 H -0.2273 9.2586 4.6190 0
M  V30 93 H -0.0770 8.6160 2.2196 0
M  V30 94 H 0.6864 4.6644 3.1738 0
M  V30 95 C -5.4042 1.7467 -1.3217 0
M  V30 96 C -5.2723 2.9325 -1.1212 0
M  V30 97 C -5.0677 4.3126 -0.9328 0
M  V30 98 C -6.0272 5.2371 -1.3067 0
M  V30 99 C -5.7944 6.6111 -1.1755 0
M  V30 100 C -4.6012 7.0826 -0.6914 0
M  V30 101 C -3.6001 6.1724 -0.2899 0
M  V30 102 C -2.3392 6.5908 0.1762 0
M  V30 103 N -1.4061 5.7438 0.5569 0
M  V30 104 C -1.6554 4.4101 0.5496 0
M  V30 105 C -2.8343 3.8992 0.0874 0
M  V30 106 C -3.8376 4.7713 -0.3817 0
M  V30 107 H -6.9654 4.8919 -1.7138 0
M  V30 108 H -6.5670 7.3023 -1.4752 0
M  V30 109 H -4.4185 8.1424 -0.6122 0
M  V30 110 H -2.0982 7.6500 0.2267 0
M  V30 111 H -0.8583 3.7801 0.9381 0
M  V30 112 H -3.0128 2.8360 0.0726 0
M  V30 113 C -5.5290 0.3619 -1.5455 0
M  V30 114 C -4.3804 -0.4316 -1.6529 0
M  V30 115 C -4.4924 -1.7886 -1.8549 0
M  V30 116 C -5.7551 -2.3853 -1.9466 0
M  V30 117 C -6.9036 -1.5890 -1.8541 0
M  V30 118 C -6.7919 -0.2300 -1.6586 0
M  V30 119 H -3.4097 0.0321 -1.5781 0
M  V30 120 H -3.6098 -2.4015 -1.9400 0
M  V30 121 H -7.8777 -2.0483 -1.9316 0
M  V30 122 H -7.6779 0.3827 -1.5823 0
M  V30 123 C -5.8864 -3.7787 -2.0960 0
M  V30 124 C -6.0101 -4.9799 -2.1810 0
M  V30 125 C -6.2377 -6.3674 -2.2086 0
M  V30 126 C -7.5358 -6.8483 -2.2184 0
M  V30 127 C -7.7976 -8.2209 -2.1778 0
M  V30 128 C -6.7743 -9.1339 -2.1076 0
M  V30 129 C -5.4391 -8.6926 -2.1016 0
M  V30 130 C -4.3404 -9.5772 -2.0123 0
M  V30 131 C -3.0683 -9.0842 -2.0265 0
M  V30 132 N -2.8117 -7.7589 -2.1524 0
M  V30 133 C -3.8098 -6.8999 -2.2176 0
M  V30 134 C -5.1551 -7.2977 -2.1767 0
M  V30 135 H -8.3580 -6.1498 -2.2491 0
M  V30 136 H -8.8225 -8.5591 -2.1886 0
M  V30 137 H -6.9805 -10.1913 -2.0552 0
M  V30 138 H -4.5201 -10.6373 -1.9301 0
M  V30 139 H -2.2007 -9.7355 -1.9368 0
M  V30 140 H -3.5569 -5.8462 -2.3145 0
M  V30 141 C -0.5970 2.1905 -5.7556 0
M  V30 142 C -0.5113 3.3710 -5.5047 0
M  V30 143 C -0.4629 4.7359 -5.1651 0
M  V30 144 C -0.8403 5.7129 -6.0703 0
M  V30 145 C -0.8480 7.0652 -5.7101 0
M  V30 146 C -0.5040 7.4612 -4.4429 0
M  V30 147 C -0.1087 6.4968 -3.4916 0
M  V30 148 C 0.2097 6.8315 -2.1615 0
M  V30 149 N 0.5793 5.9336 -1.2729 0
M  V30 150 C 0.7078 4.6319 -1.6346 0
M  V30 151 C 0.3960 4.1987 -2.8912 0
M  V30 152 C -0.0571 5.1212 -3.8560 0
M  V30 153 H -1.1387 5.4249 -7.0669 0
M  V30 154 H -1.1436 7.7992 -6.4439 0
M  V30 155 H -0.5321 8.5024 -4.1640 0
M  V30 156 H 0.1482 7.8640 -1.8266 0
M  V30 157 H 1.0727 3.9627 -0.8578 0
M  V30 158 H 0.4845 3.1588 -3.1613 0
M  V30 159 C -0.7043 0.8132 -6.0264 0
M  V30 160 C -0.4199 -0.1213 -5.0232 0
M  V30 161 C -0.5311 -1.4689 -5.2801 0
M  V30 162 C -0.9253 -1.9146 -6.5470 0
M  V30 163 C -1.2108 -0.9803 -7.5502 0
M  V30 164 C -1.1031 0.3684 -7.2923 0
M  V30 165 H -0.1093 0.2247 -4.0501 0
M  V30 166 H -0.3027 -2.1915 -4.5133 0
M  V30 167 H -1.5140 -1.3244 -8.5278 0
M  V30 168 H -1.3217 1.0887 -8.0664 0
M  V30 169 C -1.0063 -3.2915 -6.8281 0
M  V30 170 C -1.0475 -4.4758 -7.0748 0
M  V30 171 C -1.0216 -5.8332 -7.4417 0
M  V30 172 C -1.0411 -6.1832 -8.7807 0
M  V30 173 C -0.9408 -7.5197 -9.1785 0
M  V30 174 C -0.8007 -8.5242 -8.2529 0
M  V30 175 C -0.7865 -8.2173 -6.8806 0
M  V30 176 C -0.6296 -9.1998 -5.8767 0
M  V30 177 C -0.6458 -8.8363 -4.5617 0
M  V30 178 N -0.8398 -7.5518 -4.1723 0
M  V30 179 C -0.9654 -6.6031 -5.0792 0
M  V30 180 C -0.9242 -6.8631 -6.4578 0
M  V30 181 H -1.1229 -5.4092 -9.5284 0
M  V30 182 H -0.9597 -7.7553 -10.2317 0
M  V30 183 H -0.7001 -9.5520 -8.5645 0
M  V30 184 H -0.4955 -10.2310 -6.1620 0
M  V30 185 H -0.5046 -9.5644 -3.7650 0
M  V30 186 H -1.1155 -5.5866 -4.7219 0
M  V30 END ATOM
M  V30 BEGIN BOND
M  V30 1 3 3 4
M  V30 2 1 4 5
M  V30 3 2 5 6
M  V30 4 1 6 7
M  V30 5 2 7 8
M  V30 6 1 8 9
M  V30 7 2 9 10
M  V30 8 1 10 11
M  V30 9 2 11 12
M  V30 10 1 12 13
M  V30 11 2 13 14
M  V30 12 1 14 5
M  V30 13 1 14 9
M  V30 14 1 6 15
M  V30 15 1 7 16
M  V30 16 1 8 17
M  V30 17 1 10 18
M  V30 18 1 12 19
M  V30 19 1 13 20
M  V30 20 2 21 22
M  V30 21 1 22 23
M  V30 22 2 23 24
M  V30 23 1 24 25
M  V30 24 2 25 26
M  V30 25 1 26 21
M  V30 26 1 22 27
M  V30 27 1 23 28
M  V30 28 1 25 29
M  V30 29 1 26 30
M  V30 30 3 31 32
M  V30 31 1 32 33
M  V30 32 2 33 34
M  V30 33 1 34 35
M  V30 34 2 35 36
M  V30 35 1 36 37
M  V30 36 2 37 38
M  V30 37 1 38 39
M  V30 38 2 39 40
M  V30 39 1 40 41
M  V30 40 2 41 42
M  V30 41 1 42 33
M  V30 42 1 42 37
M  V30 43 1 34 43
M  V30 44 1 35 44
M  V30 45 1 36 45
M  V30 46 1 38 46
M  V30 47 1 39 47
M  V30 48 1 41 48
M  V30 49 1 3 21
M  V30 50 1 24 31
M  V30 51 3 49 50
M  V30 52 1 50 51
M  V30 53 2 51 52
M  V30 54 1 52 53
M  V30 55 2 53 54
M  V30 56 1 54 55
M  V30 57 2 55 56
M  V30 58 1 56 57
M  V30 59 2 57 58
M  V30 60 1 58 59
M  V30 61 2 59 60
M  V30 62 1 60 51
M  V30 63 1 60 55
M  V30 64 1 52 61
M  V30 65 1 53 62
M  V30 66 1 54 63
M  V30 67 1 56 64
M  V30 68 1 58 65
M  V30 69 1 59 66
M  V30 70 2 67 68
M  V30 71 1 68 69
M  V30 72 2 69 70
M  V30 73 1 70 71
M  V30 74 2 71 72
M  V30 75 1 72 67
M  V30 76 1 68 73
M  V30 77 1 69 74
M  V30 78 1 71 75
M  V30 79 1 72 76
M  V30 80 3 77 78
M  V30 81 1 78 79
M  V30 82 2 79 80
M  V30 83 1 80 81
M  V30 84 2 81 82
M  V30 85 1 82 83
M  V30 86 2 83 84
M  V30 87 1 84 85
M  V30 88 2 85 86
M  V30 89 1 86 87
M  V30 90 2 87 88
M  V30 91 1 88 79
M  V30 92 1 88 83
M  V30 93 1 80 89
M  V30 94 1 81 90
M  V30 95 1 82 91
M  V30 96 1 84 92
M  V30 97 1 85 93
M  V30 98 1 87 94
M  V30 99 1 49 67
M  V30 100 1 70 77
M  V30 101 3 95 96
M  V30 102 1 96 97
M  V30 103 2 97 98
M  V30 104 1 98 99
M  V30 105 2 99 100
M  V30 106 1 100 101
M  V30 107 2 101 102
M  V30 108 1 102 103
M  V30 109 2 103 104
M  V30 110 1 104 105
M  V30 111 2 105 106
M  V30 112 1 106 97
M  V30 113 1 106 101
M  V30 114 1 98 107
M  V30 115 1 99 108
M  V30 116 1 100 109
M  V30 117 1 102 110
M  V30 118 1 104 111
M  V30 119 1 105 112
M  V30 120 2 113 114
M  V30 121 1 114 115
M  V30 122 2 115 116
M  V30 123 1 116 117
M  V30 124 2 117 118
M  V30 125 1 118 113
M  V30 126 1 114 119
M  V30 127 1 115 120
M  V30 128 1 117 121
M  V30 129 1 118 122
M  V30 130 3 123 124
M  V30 131 1 124 125
M  V30 132 2 125 126
M  V30 133 1 126 127
M  V30 134 2 127 128
M  V30 135 1 128 129
M  V30 136 2 129 130
M  V30 137 1 130 131
M  V30 138 2 131 132
M  V30 139 1 132 133
M  V30 140 2 133 134
M  V30 141 1 134 125
M  V30 142 1 134 129
M  V30 143 1 126 135
M  V30 144 1 127 136
M  V30 145 1 128 137
M  V30 146 1 130 138
M  V30 147 1 131 139
M  V30 148 1 133 140
M  V30 149 1 95 113
M  V30 150 1 116 123
M  V30 151 3 141 142
M  V30 152 1 142 143
M  V30 153 2 143 144
M  V30 154 1 144 145
M  V30 155 2 145 146
M  V30 156 1 146 147
M  V30 157 2 147 148
M  V30 158 1 148 149
M  V30 159 2 149 150
M  V30 160 1 150 151
M  V30 161 2 151 152
M  V30 162 1 152 143
M  V30 163 1 152 147
M  V30 164 1 144 153
M  V30 165 1 145 154
M  V30 166 1 146 155
M  V30 167 1 148 156
M  V30 168 1 150 157
M  V30 169 1 151 158
M  V30 170 2 159 160
M  V30 171 1 160 161
M  V30 172 2 161 162
M  V30 173 1 162 163
M  V30 174 2 163 164
M  V30 175 1 164 159
M  V30 176 1 160 165
M  V30 177 1 161 166
M  V30 178 1 163 167
M  V30 179 1 164 168
M  V30 180 3 169 170
M  V30 181 1 170 171
M  V30 182 2 171 172
M  V30 183 1 172 173
M  V30 184 2 173 174
M  V30 185 1 174 175
M  V30 186 2 175 176
M  V30 187 1 176 177
M  V30 188 2 177 178
M  V30 189 1 178 179
M  V30 190 2 179 180
M  V30 191 1 180 171
M  V30 192 1 180 175
M  V30 193 1 172 181
M  V30 194 1 173 182
M  V30 195 1 174 183
M  V30 196 1 176 184
M  V30 197 1 177 185
M  V30 198 1 179 186
M  V30 199 1 141 159
M  V30 200 1 162 169
M  V30 201 9 40 1
M  V30 202 9 86 1
M  V30 203 9 103 1
M  V30 204 9 149 1
M  V30 205 9 11 2
M  V30 206 9 57 2
M  V30 207 9 132 2
M  V30 208 9 178 2
M  V30 END BOND
M  V30 END CTAB
M  END

$$$$
