
     RDKit          3D

  0  0  0  0  0  0  0  0  0  0999 V3000
M  V30 BEGIN CTAB
M  V30 COUNTS 24 25 0 0 0
M  V30 BEGIN ATOM
M  V30 1 C -1.5145 2.5326 -1.4348 0
M  V30 2 N -0.4720 1.5274 -1.4262 0
M  V30 3 C 0.4356 1.3842 -2.3778 0
M  V30 4 N 1.2160 0.3541 -2.0078 0
M  V30 5 C 0.7848 -0.1332 -0.8282 0
M  V30 6 C -0.3053 0.6286 -0.4580 0
M  V30 7 C -0.9271 0.3133 0.7353 0
M  V30 8 O -1.9213 1.0000 1.0835 0
M  V30 9 N -0.5027 -0.6925 1.5203 0
M  V30 10 C 0.5616 -1.3952 1.1050 0
M  V30 11 O 0.9715 -2.3306 1.8160 0
M  V30 12 N 1.2104 -1.1409 -0.0423 0
M  V30 13 C 2.3581 -1.9310 -0.4477 0
M  V30 14 C -1.1853 -0.9892 2.7657 0
M  V30 15 H -2.3526 2.2790 -2.1111 0
M  V30 16 H -1.9095 2.7692 -0.4441 0
M  V30 17 H -1.0720 3.4946 -1.8275 0
M  V30 18 H 0.5416 1.9775 -3.2880 0
M  V30 19 H 2.9874 -1.3726 -1.1798 0
M  V30 20 H 2.0866 -2.8810 -0.9106 0
M  V30 21 H 3.0270 -2.1279 0.4399 0
M  V30 22 H -2.2467 -0.6736 2.7310 0
M  V30 23 H -0.6365 -0.5140 3.6293 0
M  V30 24 H -1.1353 -2.0789 2.9579 0
M  V30 END ATOM
M  V30 BEGIN BOND
M  V30 1 1 1 2
M  V30 2 1 2 3
M  V30 3 2 3 4
M  V30 4 1 4 5
M  V30 5 2 5 6
M  V30 6 1 6 7
M  V30 7 2 7 8
M  V30 8 1 7 9
M  V30 9 1 9 10
M  V30 10 2 10 11
M  V30 11 1 10 12
M  V30 12 1 12 13
M  V30 13 1 9 14
M  V30 14 1 6 2
M  V30 15 1 12 5
M  V30 16 1 1 15
M  V30 17 1 1 16
M  V30 18 1 1 17
M  V30 19 1 3 18
M  V30 20 1 13 19
M  V30 21 1 13 20
M  V30 22 1 13 21
M  V30 23 1 14 22
M  V30 24 1 14 23
M  V30 25 1 14 24
M  V30 END BOND
M  V30 END CTAB
M  END

$$$$
