
     RDKit          3D

  0  0  0  0  0  0  0  0  0  0999 V3000
M  V30 BEGIN CTAB
M  V30 COUNTS 24 25 0 0 0
M  V30 BEGIN ATOM
M  V30 1 C -1.2899 2.6474 -1.4470 0
M  V30 2 N -0.3157 1.5763 -1.4161 0
M  V30 3 C 0.6175 1.3886 -2.3345 0
M  V30 4 N 1.3146 0.3044 -1.9531 0
M  V30 5 C 0.8066 -0.1716 -0.7997 0
M  V30 6 C -0.2458 0.6541 -0.4583 0
M  V30 7 C -0.9332 0.3620 0.7047 0
M  V30 8 O -1.8938 1.1067 1.0265 0
M  V30 9 N -0.6060 -0.6811 1.4875 0
M  V30 10 C 0.4263 -1.4454 1.1010 0
M  V30 11 O 0.7466 -2.4161 1.8105 0
M  V30 12 N 1.1349 -1.2167 -0.0159 0
M  V30 13 C 2.2442 -2.0738 -0.3910 0
M  V30 14 C -1.3549 -0.9514 2.7003 0
M  V30 15 H -2.1153 2.4593 -2.1593 0
M  V30 16 H -1.7076 2.8943 -0.4681 0
M  V30 17 H -0.7710 3.5843 -1.8053 0
M  V30 18 H 0.7975 1.9874 -3.2294 0
M  V30 19 H 2.9367 -1.5466 -1.0884 0
M  V30 20 H 1.9304 -2.9969 -0.8806 0
M  V30 21 H 2.8635 -2.3272 0.5181 0
M  V30 22 H -2.3915 -0.5667 2.6304 0
M  V30 23 H -0.8110 -0.5261 3.5925 0
M  V30 24 H -1.3830 -2.0448 2.8750 0
M  V30 END ATOM
M  V30 BEGIN BOND
M  V30 1 1 1 2
M  V30 2 1 2 3
M  V30 3 2 3 4
M  V30 4 1 4 5
M  V30 5 2 5 6
M  V30 6 1 6 7
M  V30 7 2 7 8
M  V30 8 1 7 9
M  V30 9 1 9 10
M  V30 10 2 10 11
M  V30 11 1 10 12
M  V30 12 1 12 13
M  V30 13 1 9 14
M  V30 14 1 6 2
M  V30 15 1 12 5
M  V30 16 1 1 15
M  V30 17 1 1 16
M  V30 18 1 1 17
M  V30 19 1 3 18
M  V30 20 1 13 19
M  V30 21 1 13 20
M  V30 22 1 13 21
M  V30 23 1 14 22
M  V30 24 1 14 23
M  V30 25 1 14 24
M  V30 END BOND
M  V30 END CTAB
M  END

$$$$
