
     RDKit          3D

  0  0  0  0  0  0  0  0  0  0999 V3000
M  V30 BEGIN CTAB
M  V30 COUNTS 200 222 0 0 0
M  V30 BEGIN ATOM
M  V30 1 Pd 5.7027 0.3644 -1.3203 0 CHG=2
M  V30 2 Pd -6.0267 -0.0895 1.2769 0 CHG=2
M  V30 3 C -4.4566 5.5811 -3.8861 0
M  V30 4 C -5.4639 5.0643 -3.4605 0
M  V30 5 C -6.6045 4.4030 -2.9665 0
M  V30 6 C -7.8708 4.6945 -3.4399 0
M  V30 7 C -8.9927 3.9986 -2.9728 0
M  V30 8 C -8.8680 3.0010 -2.0412 0
M  V30 9 C -7.5935 2.6781 -1.5265 0
M  V30 10 C -7.3982 1.6605 -0.5734 0
M  V30 11 N -6.2151 1.3603 -0.0776 0
M  V30 12 C -5.1285 2.0661 -0.4683 0
M  V30 13 C -5.2041 3.0607 -1.4023 0
M  V30 14 C -6.4474 3.3910 -1.9762 0
M  V30 15 H -7.9941 5.4661 -4.1849 0
M  V30 16 H -9.9649 4.2545 -3.3653 0
M  V30 17 H -9.7353 2.4608 -1.6961 0
M  V30 18 H -8.2533 1.0889 -0.2217 0
M  V30 19 H -4.1985 1.7948 0.0162 0
M  V30 20 H -4.3263 3.6083 -1.7053 0
M  V30 21 C -3.2440 6.1205 -4.3617 0
M  V30 22 C -3.2379 7.2539 -5.2100 0
M  V30 23 C -2.0573 7.7563 -5.6769 0
M  V30 24 C -0.8236 7.1612 -5.3326 0
M  V30 25 C 0.4123 7.6535 -5.8069 0
M  V30 26 C 1.5899 7.0543 -5.4630 0
M  V30 27 C 1.5878 5.9193 -4.6166 0
M  V30 28 C 0.3955 5.4197 -4.1341 0
M  V30 29 C -0.8269 6.0237 -4.4789 0
M  V30 30 C -2.0528 5.5238 -4.0035 0
M  V30 31 H -4.1769 7.7134 -5.4812 0
M  V30 32 H -2.0528 8.6218 -6.3243 0
M  V30 33 H 0.4106 8.5195 -6.4535 0
M  V30 34 H 2.5298 7.4364 -5.8324 0
M  V30 35 H 0.3932 4.5609 -3.4814 0
M  V30 36 H -2.0529 4.6592 -3.3580 0
M  V30 37 C 2.7939 5.2878 -4.2547 0
M  V30 38 C 3.7951 4.7036 -3.9104 0
M  V30 39 C 4.9372 4.0101 -3.4699 0
M  V30 40 C 6.2314 4.5189 -3.6247 0
M  V30 41 C 7.2949 3.7842 -3.1311 0
M  V30 42 C 7.0541 2.5748 -2.4999 0
M  V30 43 N 5.8162 2.0807 -2.3631 0
M  V30 44 C 4.7863 2.7723 -2.8346 0
M  V30 45 H 6.3877 5.4673 -4.1143 0
M  V30 46 H 8.3054 4.1472 -3.2286 0
M  V30 47 H 7.8756 1.9929 -2.0888 0
M  V30 48 H 3.8001 2.3461 -2.7156 0
M  V30 49 C -4.2488 -5.2367 -4.3188 0
M  V30 50 C -5.2777 -4.8886 -3.7868 0
M  V30 51 C -6.4430 -4.4087 -3.1591 0
M  V30 52 C -7.7022 -4.8332 -3.5416 0
M  V30 53 C -8.8525 -4.3115 -2.9367 0
M  V30 54 C -8.7655 -3.3574 -1.9566 0
M  V30 55 C -7.4981 -2.9015 -1.5327 0
M  V30 56 C -7.3408 -1.9173 -0.5382 0
M  V30 57 N -6.1619 -1.4938 -0.1301 0
M  V30 58 C -5.0387 -2.0333 -0.6572 0
M  V30 59 C -5.0788 -2.9813 -1.6403 0
M  V30 60 C -6.3204 -3.4379 -2.1233 0
M  V30 61 H -7.7988 -5.5732 -4.3217 0
M  V30 62 H -9.8184 -4.6678 -3.2610 0
M  V30 63 H -9.6569 -2.9519 -1.5048 0
M  V30 64 H -8.2223 -1.4808 -0.0751 0
M  V30 65 H -4.1082 -1.6678 -0.2407 0
M  V30 66 H -4.1731 -3.3955 -2.0527 0
M  V30 67 C -3.0187 -5.5697 -4.9215 0
M  V30 68 C -2.9424 -6.5883 -5.9019 0
M  V30 69 C -1.7498 -6.8781 -6.5001 0
M  V30 70 C -0.5738 -6.1723 -6.1636 0
M  V30 71 C 0.6687 -6.4345 -6.7819 0
M  V30 72 C 1.7858 -5.7227 -6.4512 0
M  V30 73 C 1.7157 -4.7089 -5.4651 0
M  V30 74 C 0.5185 -4.4418 -4.8334 0
M  V30 75 C -0.6455 -5.1553 -5.1719 0
M  V30 76 C -1.8818 -4.8752 -4.5624 0
M  V30 77 H -3.8383 -7.1285 -6.1703 0
M  V30 78 H -1.6922 -7.6542 -7.2502 0
M  V30 79 H 0.7197 -7.2103 -7.5326 0
M  V30 80 H 2.7296 -5.9247 -6.9352 0
M  V30 81 H 0.4646 -3.6752 -4.0766 0
M  V30 82 H -1.9349 -4.0986 -3.8149 0
M  V30 83 C 2.8573 -3.9536 -5.1320 0
M  V30 84 C 3.8021 -3.2641 -4.8249 0
M  V30 85 C 4.8843 -2.4403 -4.4645 0
M  V30 86 C 6.0902 -2.4410 -5.1749 0
M  V30 87 C 7.1030 -1.5952 -4.7598 0
M  V30 88 C 6.8975 -0.7700 -3.6657 0
M  V30 89 N 5.7416 -0.7634 -2.9893 0
M  V30 90 C 4.7648 -1.5806 -3.3672 0
M  V30 91 H 6.2196 -3.0921 -6.0251 0
M  V30 92 H 8.0477 -1.5725 -5.2788 0
M  V30 93 H 7.6805 -0.0975 -3.3278 0
M  V30 94 H 3.8530 -1.5749 -2.7858 0
M  V30 95 C 4.3982 -5.4930 3.6365 0
M  V30 96 C 5.3695 -5.1700 2.9916 0
M  V30 97 C 6.4279 -4.7147 2.1833 0
M  V30 98 C 7.6492 -5.3598 2.1263 0
M  V30 99 C 8.6718 -4.8915 1.2911 0
M  V30 100 C 8.4929 -3.7848 0.5022 0
M  V30 101 C 7.2617 -3.0939 0.5343 0
M  V30 102 C 7.0114 -1.9530 -0.2504 0
M  V30 103 N 5.8651 -1.3007 -0.2232 0
M  V30 104 C 4.8805 -1.7171 0.6059 0
M  V30 105 C 5.0184 -2.8174 1.4033 0
M  V30 106 C 6.2181 -3.5521 1.3858 0
M  V30 107 H 7.8150 -6.2387 2.7308 0
M  V30 108 H 9.6117 -5.4216 1.2725 0
M  V30 109 H 9.2837 -3.4370 -0.1435 0
M  V30 110 H 7.7882 -1.5857 -0.9173 0
M  V30 111 H 3.9760 -1.1263 0.6089 0
M  V30 112 H 4.2205 -3.1327 2.0555 0
M  V30 113 C 3.2182 -5.8052 4.3412 0
M  V30 114 C 3.2122 -6.7769 5.3700 0
M  V30 115 C 2.0564 -7.0571 6.0408 0
M  V30 116 C 0.8500 -6.3932 5.7271 0
M  V30 117 C -0.3598 -6.6656 6.4030 0
M  V30 118 C -1.5128 -6.0134 6.0739 0
M  V30 119 C -1.5128 -5.0434 5.0417 0
M  V30 120 C -0.3452 -4.7536 4.3672 0
M  V30 121 C 0.8521 -5.4183 4.6916 0
M  V30 122 C 2.0528 -5.1420 4.0139 0
M  V30 123 H 4.1303 -7.2898 5.6159 0
M  V30 124 H 2.0506 -7.7987 6.8271 0
M  V30 125 H -0.3579 -7.4065 7.1898 0
M  V30 126 H -2.4338 -6.2296 6.5944 0
M  V30 127 H -0.3434 -4.0177 3.5782 0
M  V30 128 H 2.0523 -4.4070 3.2237 0
M  V30 129 C -2.7087 -4.3834 4.6952 0
M  V30 130 C -3.7171 -3.8051 4.3632 0
M  V30 131 C -4.9136 -3.1712 3.9779 0
M  V30 132 C -6.1493 -3.5789 4.4970 0
M  V30 133 C -7.2988 -2.9411 4.0670 0
M  V30 134 C -7.1988 -1.9202 3.1353 0
M  V30 135 N -6.0175 -1.5279 2.6478 0
M  V30 136 C -4.9015 -2.1246 3.0505 0
M  V30 137 H -6.1941 -4.3810 5.2172 0
M  V30 138 H -8.2645 -3.2333 4.4465 0
M  V30 139 H -8.0825 -1.4030 2.7707 0
M  V30 140 H -3.9754 -1.7581 2.6219 0
M  V30 141 C 4.4087 4.1036 5.3817 0
M  V30 142 C 5.4200 3.7458 4.8226 0
M  V30 143 C 6.5280 3.2490 4.1110 0
M  V30 144 C 7.8123 3.2855 4.6212 0
M  V30 145 C 8.8847 2.7311 3.9108 0
M  V30 146 C 8.6931 2.1246 2.6966 0
M  V30 147 C 7.3982 2.0756 2.1353 0
M  V30 148 C 7.1300 1.4578 0.9002 0
M  V30 149 N 5.9257 1.4204 0.3631 0
M  V30 150 C 4.8924 2.0180 0.9992 0
M  V30 151 C 5.0410 2.6258 2.2138 0
M  V30 152 C 6.3038 2.6578 2.8337 0
M  V30 153 H 7.9889 3.7408 5.5841 0
M  V30 154 H 9.8736 2.7785 4.3408 0
M  V30 155 H 9.5225 1.6855 2.1651 0
M  V30 156 H 7.9431 0.9805 0.3577 0
M  V30 157 H 3.9399 1.9983 0.4892 0
M  V30 158 H 4.2027 3.0910 2.7065 0
M  V30 159 C 3.1789 4.4614 5.9699 0
M  V30 160 C 3.1234 5.3024 7.1066 0
M  V30 161 C 1.9179 5.6306 7.6575 0
M  V30 162 C 0.7090 5.1426 7.1144 0
M  V30 163 C -0.5512 5.4656 7.6642 0
M  V30 164 C -1.7038 4.9794 7.1180 0
M  V30 165 C -1.6526 4.1343 5.9826 0
M  V30 166 C -0.4360 3.8012 5.4250 0
M  V30 167 C 0.7618 4.2952 5.9735 0
M  V30 168 C 2.0125 3.9707 5.4189 0
M  V30 169 H 4.0432 5.6798 7.5286 0
M  V30 170 H 1.8741 6.2737 8.5252 0
M  V30 171 H -0.5880 6.1100 8.5311 0
M  V30 172 H -2.6629 5.2319 7.5449 0
M  V30 173 H -0.3945 3.1602 4.5583 0
M  V30 174 H 2.0532 3.3228 4.5567 0
M  V30 175 C -2.8444 3.6374 5.4181 0
M  V30 176 C -3.8435 3.1936 4.9020 0
M  V30 177 C -5.0263 2.7061 4.3147 0
M  V30 178 C -6.2837 3.1627 4.7306 0
M  V30 179 C -7.4152 2.6608 4.1134 0
M  V30 180 C -7.2761 1.7228 3.1031 0
M  V30 181 N -6.0750 1.2855 2.7113 0
M  V30 182 C -4.9762 1.7532 3.2923 0
M  V30 183 H -6.3584 3.8950 5.5193 0
M  V30 184 H -8.3968 2.9930 4.4107 0
M  V30 185 H -8.1440 1.3127 2.5931 0
M  V30 186 H -4.0334 1.3549 2.9345 0
M  V30 187 C -1.3188 0.2782 -2.5755 0
M  V30 188 C -2.0418 0.1830 -1.4011 0
M  V30 189 C -1.3801 0.1309 -0.1685 0
M  V30 190 C 0.0184 0.1794 -0.1271 0
M  V30 191 C 0.7157 0.2761 -1.3152 0
M  V30 192 C 0.0681 0.3251 -2.5412 0
M  V30 193 Br 2.6775 0.3482 -1.2779 0
M  V30 194 C -2.1421 0.0237 1.0758 0
M  V30 195 O -3.3569 -0.0268 1.1358 0
M  V30 196 H -1.8286 0.3175 -3.5252 0
M  V30 197 H -3.1212 0.1497 -1.4268 0
M  V30 198 H 0.5387 0.1428 0.8170 0
M  V30 199 H 0.6312 0.3991 -3.4579 0
M  V30 200 H -1.5380 -0.0144 1.9935 0
M  V30 END ATOM
M  V30 BEGIN BOND
M  V30 1 3 3 4
M  V30 2 1 4 5
M  V30 3 2 5 6
M  V30 4 1 6 7
M  V30 5 2 7 8
M  V30 6 1 8 9
M  V30 7 2 9 10
M  V30 8 1 10 11
M  V30 9 2 11 12
M  V30 10 1 12 13
M  V30 11 2 13 14
M  V30 12 1 14 5
M  V30 13 1 14 9
M  V30 14 1 6 15
M  V30 15 1 7 16
M  V30 16 1 8 17
M  V30 17 1 10 18
M  V30 18 1 12 19
M  V30 19 1 13 20
M  V30 20 2 21 22
M  V30 21 1 22 23
M  V30 22 2 23 24
M  V30 23 1 24 25
M  V30 24 2 25 26
M  V30 25 1 26 27
M  V30 26 2 27 28
M  V30 27 1 28 29
M  V30 28 2 29 30
M  V30 29 1 30 21
M  V30 30 1 29 24
M  V30 31 1 22 31
M  V30 32 1 23 32
M  V30 33 1 25 33
M  V30 34 1 26 34
M  V30 35 1 28 35
M  V30 36 1 30 36
M  V30 37 3 37 38
M  V30 38 1 38 39
M  V30 39 2 39 40
M  V30 40 1 40 41
M  V30 41 2 41 42
M  V30 42 1 42 43
M  V30 43 2 43 44
M  V30 44 1 44 39
M  V30 45 1 40 45
M  V30 46 1 41 46
M  V30 47 1 42 47
M  V30 48 1 44 48
M  V30 49 1 3 21
M  V30 50 1 27 37
M  V30 51 3 49 50
M  V30 52 1 50 51
M  V30 53 2 51 52
M  V30 54 1 52 53
M  V30 55 2 53 54
M  V30 56 1 54 55
M  V30 57 2 55 56
M  V30 58 1 56 57
M  V30 59 2 57 58
M  V30 60 1 58 59
M  V30 61 2 59 60
M  V30 62 1 60 51
M  V30 63 1 60 55
M  V30 64 1 52 61
M  V30 65 1 53 62
M  V30 66 1 54 63
M  V30 67 1 56 64
M  V30 68 1 58 65
M  V30 69 1 59 66
M  V30 70 2 67 68
M  V30 71 1 68 69
M  V30 72 2 69 70
M  V30 73 1 70 71
M  V30 74 2 71 72
M  V30 75 1 72 73
M  V30 76 2 73 74
M  V30 77 1 74 75
M  V30 78 2 75 76
M  V30 79 1 76 67
M  V30 80 1 75 70
M  V30 81 1 68 77
M  V30 82 1 69 78
M  V30 83 1 71 79
M  V30 84 1 72 80
M  V30 85 1 74 81
M  V30 86 1 76 82
M  V30 87 3 83 84
M  V30 88 1 84 85
M  V30 89 2 85 86
M  V30 90 1 86 87
M  V30 91 2 87 88
M  V30 92 1 88 89
M  V30 93 2 89 90
M  V30 94 1 90 85
M  V30 95 1 86 91
M  V30 96 1 87 92
M  V30 97 1 88 93
M  V30 98 1 90 94
M  V30 99 1 49 67
M  V30 100 1 73 83
M  V30 101 3 95 96
M  V30 102 1 96 97
M  V30 103 2 97 98
M  V30 104 1 98 99
M  V30 105 2 99 100
M  V30 106 1 100 101
M  V30 107 2 101 102
M  V30 108 1 102 103
M  V30 109 2 103 104
M  V30 110 1 104 105
M  V30 111 2 105 106
M  V30 112 1 106 97
M  V30 113 1 106 101
M  V30 114 1 98 107
M  V30 115 1 99 108
M  V30 116 1 100 109
M  V30 117 1 102 110
M  V30 118 1 104 111
M  V30 119 1 105 112
M  V30 120 2 113 114
M  V30 121 1 114 115
M  V30 122 2 115 116
M  V30 123 1 116 117
M  V30 124 2 117 118
M  V30 125 1 118 119
M  V30 126 2 119 120
M  V30 127 1 120 121
M  V30 128 2 121 122
M  V30 129 1 122 113
M  V30 130 1 121 116
M  V30 131 1 114 123
M  V30 132 1 115 124
M  V30 133 1 117 125
M  V30 134 1 118 126
M  V30 135 1 120 127
M  V30 136 1 122 128
M  V30 137 3 129 130
M  V30 138 1 130 131
M  V30 139 2 131 132
M  V30 140 1 132 133
M  V30 141 2 133 134
M  V30 142 1 134 135
M  V30 143 2 135 136
M  V30 144 1 136 131
M  V30 145 1 132 137
M  V30 146 1 133 138
M  V30 147 1 134 139
M  V30 148 1 136 140
M  V30 149 1 95 113
M  V30 150 1 119 129
M  V30 151 3 141 142
M  V30 152 1 142 143
M  V30 153 2 143 144
M  V30 154 1 144 145
M  V30 155 2 145 146
M  V30 156 1 146 147
M  V30 157 2 147 148
M  V30 158 1 148 149
M  V30 159 2 149 150
M  V30 160 1 150 151
M  V30 161 2 151 152
M  V30 162 1 152 143
M  V30 163 1 152 147
M  V30 164 1 144 153
M  V30 165 1 145 154
M  V30 166 1 146 155
M  V30 167 1 148 156
M  V30 168 1 150 157
M  V30 169 1 151 158
M  V30 170 2 159 160
M  V30 171 1 160 161
M  V30 172 2 161 162
M  V30 173 1 162 163
M  V30 174 2 163 164
M  V30 175 1 164 165
M  V30 176 2 165 166
M  V30 177 1 166 167
M  V30 178 2 167 168
M  V30 179 1 168 159
M  V30 180 1 167 162
M  V30 181 1 160 169
M  V30 182 1 161 170
M  V30 183 1 163 171
M  V30 184 1 164 172
M  V30 185 1 166 173
M  V30 186 1 168 174
M  V30 187 3 175 176
M  V30 188 1 176 177
M  V30 189 2 177 178
M  V30 190 1 178 179
M  V30 191 2 179 180
M  V30 192 1 180 181
M  V30 193 2 181 182
M  V30 194 1 182 177
M  V30 195 1 178 183
M  V30 196 1 179 184
M  V30 197 1 180 185
M  V30 198 1 182 186
M  V30 199 1 141 159
M  V30 200 1 165 175
M  V30 201 9 43 1
M  V30 202 9 89 1
M  V30 203 9 103 1
M  V30 204 9 149 1
M  V30 205 9 11 2
M  V30 206 9 57 2
M  V30 207 9 135 2
M  V30 208 9 181 2
M  V30 209 2 187 188
M  V30 210 1 188 189
M  V30 211 2 189 190
M  V30 212 1 190 191
M  V30 213 2 191 192
M  V30 214 1 191 193
M  V30 215 1 189 194
M  V30 216 2 194 195
M  V30 217 1 192 187
M  V30 218 1 187 196
M  V30 219 1 188 197
M  V30 220 1 190 198
M  V30 221 1 192 199
M  V30 222 1 194 200
M  V30 END BOND
M  V30 END CTAB
M  END

$$$$
