
     RDKit          3D

  0  0  0  0  0  0  0  0  0  0999 V3000
M  V30 BEGIN CTAB
M  V30 COUNTS 200 222 0 0 0
M  V30 BEGIN ATOM
M  V30 1 Pd -2.7241 3.1634 -4.1193 0 CHG=2
M  V30 2 Pd 2.5976 -3.3119 4.4993 0 CHG=2
M  V30 3 C -5.1981 -3.4915 5.1865 0
M  V30 4 C -4.2788 -4.0910 5.6948 0
M  V30 5 C -3.1780 -4.7897 6.2262 0
M  V30 6 C -3.3470 -5.8469 7.1015 0
M  V30 7 C -2.2460 -6.5626 7.5884 0
M  V30 8 C -0.9698 -6.2437 7.2035 0
M  V30 9 C -0.7537 -5.1658 6.3174 0
M  V30 10 C 0.5312 -4.7925 5.8796 0
M  V30 11 N 0.7444 -3.7806 5.0633 0
M  V30 12 C -0.3016 -3.0366 4.6344 0
M  V30 13 C -1.5910 -3.3247 4.9831 0
M  V30 14 C -1.8610 -4.4165 5.8313 0
M  V30 15 H -4.3433 -6.1274 7.4086 0
M  V30 16 H -2.4173 -7.3812 8.2704 0
M  V30 17 H -0.1281 -6.8079 7.5726 0
M  V30 18 H 1.3954 -5.3556 6.2228 0
M  V30 19 H -0.0456 -2.1935 4.0045 0
M  V30 20 H -2.4121 -2.7238 4.6268 0
M  V30 21 C -6.2236 -2.7763 4.5351 0
M  V30 22 C -7.5718 -2.9040 4.9479 0
M  V30 23 C -8.5573 -2.2184 4.2978 0
M  V30 24 C -8.2607 -1.3755 3.2041 0
M  V30 25 C -9.2598 -0.6606 2.5072 0
M  V30 26 C -8.9452 0.1425 1.4488 0
M  V30 27 C -7.5983 0.2711 1.0316 0
M  V30 28 C -6.6008 -0.4115 1.6971 0
M  V30 29 C -6.9069 -1.2439 2.7887 0
M  V30 30 C -5.9047 -1.9540 3.4743 0
M  V30 31 H -7.8082 -3.5491 5.7813 0
M  V30 32 H -9.5865 -2.3158 4.6133 0
M  V30 33 H -10.2871 -0.7615 2.8275 0
M  V30 34 H -9.7161 0.6834 0.9206 0
M  V30 35 H -5.5732 -0.3068 1.3863 0
M  V30 36 H -4.8787 -1.8545 3.1557 0
M  V30 37 C -7.2574 1.0934 -0.0603 0
M  V30 38 C -6.9038 1.7823 -0.9891 0
M  V30 39 C -6.4497 2.5888 -2.0486 0
M  V30 40 C -7.2590 3.5533 -2.6591 0
M  V30 41 C -6.7190 4.3254 -3.6723 0
M  V30 42 C -5.4017 4.1276 -4.0527 0
M  V30 43 N -4.6302 3.1952 -3.4776 0
M  V30 44 C -5.1352 2.4444 -2.5067 0
M  V30 45 H -8.2793 3.6897 -2.3367 0
M  V30 46 H -7.3117 5.0810 -4.1624 0
M  V30 47 H -4.9545 4.7378 -4.8337 0
M  V30 48 H -4.4916 1.6963 -2.0658 0
M  V30 49 C 1.8004 -7.5375 -2.0180 0
M  V30 50 C 2.2103 -7.7710 -0.9044 0
M  V30 51 C 2.6335 -7.9885 0.4207 0
M  V30 52 C 3.0108 -9.2418 0.8670 0
M  V30 53 C 3.3859 -9.4485 2.2003 0
M  V30 54 C 3.3795 -8.4187 3.1047 0
M  V30 55 C 3.0067 -7.1221 2.6879 0
M  V30 56 C 2.9702 -6.0244 3.5689 0
M  V30 57 N 2.6332 -4.8098 3.1859 0
M  V30 58 C 2.3305 -4.5782 1.8877 0
M  V30 59 C 2.3178 -5.5759 0.9543 0
M  V30 60 C 2.6437 -6.8929 1.3317 0
M  V30 61 H 3.0103 -10.0730 0.1781 0
M  V30 62 H 3.6752 -10.4406 2.5118 0
M  V30 63 H 3.6578 -8.5893 4.1326 0
M  V30 64 H 3.2324 -6.1699 4.6140 0
M  V30 65 H 2.1075 -3.5479 1.6394 0
M  V30 66 H 2.0682 -5.3735 -0.0747 0
M  V30 67 C 1.2765 -7.2069 -3.2843 0
M  V30 68 C 1.2813 -8.1492 -4.3410 0
M  V30 69 C 0.7415 -7.8256 -5.5526 0
M  V30 70 C 0.1648 -6.5566 -5.7793 0
M  V30 71 C -0.4212 -6.2020 -7.0144 0
M  V30 72 C -0.9896 -4.9745 -7.1994 0
M  V30 73 C -0.9890 -4.0260 -6.1480 0
M  V30 74 C -0.4097 -4.3395 -4.9357 0
M  V30 75 C 0.1675 -5.6045 -4.7227 0
M  V30 76 C 0.7337 -5.9541 -3.4835 0
M  V30 77 H 1.7141 -9.1246 -4.1742 0
M  V30 78 H 0.7432 -8.5460 -6.3584 0
M  V30 79 H -0.4183 -6.9271 -7.8158 0
M  V30 80 H -1.4426 -4.7153 -8.1446 0
M  V30 81 H -0.4014 -3.6158 -4.1360 0
M  V30 82 H 0.7287 -5.2321 -2.6814 0
M  V30 83 C -1.5920 -2.7646 -6.3210 0
M  V30 84 C -2.1135 -1.6773 -6.4117 0
M  V30 85 C -2.7281 -0.4141 -6.4907 0
M  V30 86 C -3.5443 -0.0486 -7.5673 0
M  V30 87 C -4.1174 1.2104 -7.5654 0
M  V30 88 C -3.8778 2.0676 -6.5033 0
M  V30 89 N -3.1026 1.7165 -5.4692 0
M  V30 90 C -2.5336 0.5161 -5.4639 0
M  V30 91 H -3.7154 -0.7389 -8.3783 0
M  V30 92 H -4.7471 1.5291 -8.3804 0
M  V30 93 H -4.3220 3.0585 -6.4838 0
M  V30 94 H -1.8899 0.2699 -4.6306 0
M  V30 95 C 4.9849 3.3244 -5.1809 0
M  V30 96 C 4.0582 3.6893 -5.8677 0
M  V30 97 C 2.9065 4.0570 -6.5884 0
M  V30 98 C 2.9678 4.6171 -7.8506 0
M  V30 99 C 1.7990 4.9480 -8.5484 0
M  V30 100 C 0.5606 4.7228 -8.0054 0
M  V30 101 C 0.4539 4.1566 -6.7162 0
M  V30 102 C -0.7851 3.8979 -6.1013 0
M  V30 103 N -0.8923 3.3723 -4.8962 0
M  V30 104 C 0.2266 3.0821 -4.1933 0
M  V30 105 C 1.4778 3.2872 -4.7013 0
M  V30 106 C 1.6328 3.8255 -5.9918 0
M  V30 107 H 3.9298 4.7980 -8.3059 0
M  V30 108 H 1.8862 5.3831 -9.5322 0
M  V30 109 H -0.3335 4.9736 -8.5541 0
M  V30 110 H -1.7029 4.1327 -6.6357 0
M  V30 111 H 0.0778 2.6831 -3.2005 0
M  V30 112 H 2.3562 3.0475 -4.1247 0
M  V30 113 C 6.0026 2.8597 -4.3237 0
M  V30 114 C 7.3635 3.1612 -4.5681 0
M  V30 115 C 8.3298 2.7029 -3.7192 0
M  V30 116 C 7.9997 1.9229 -2.5890 0
M  V30 117 C 8.9790 1.4340 -1.6966 0
M  V30 118 C 8.6316 0.6763 -0.6158 0
M  V30 119 C 7.2713 0.3679 -0.3696 0
M  V30 120 C 6.2927 0.8353 -1.2217 0
M  V30 121 C 6.6331 1.6156 -2.3423 0
M  V30 122 C 5.6524 2.0986 -3.2267 0
M  V30 123 H 7.6248 3.7566 -5.4305 0
M  V30 124 H 9.3695 2.9329 -3.9045 0
M  V30 125 H 10.0165 1.6698 -1.8865 0
M  V30 126 H 9.3873 0.3047 0.0601 0
M  V30 127 H 5.2561 0.5988 -1.0383 0
M  V30 128 H 4.6162 1.8595 -3.0428 0
M  V30 129 C 6.9186 -0.4273 0.7391 0
M  V30 130 C 6.5794 -1.1154 1.6735 0
M  V30 131 C 6.2183 -1.9452 2.7519 0
M  V30 132 C 7.1903 -2.6007 3.5188 0
M  V30 133 C 6.7831 -3.4257 4.5516 0
M  V30 134 C 5.4287 -3.5835 4.7986 0
M  V30 135 N 4.5038 -2.9504 4.0703 0
M  V30 136 C 4.8737 -2.1507 3.0766 0
M  V30 137 H 8.2370 -2.4613 3.2975 0
M  V30 138 H 7.5070 -3.9452 5.1584 0
M  V30 139 H 5.0744 -4.2298 5.5975 0
M  V30 140 H 4.0770 -1.6626 2.5264 0
M  V30 141 C -0.3526 7.9151 1.5702 0
M  V30 142 C -0.7695 8.1159 0.4525 0
M  V30 143 C -1.2223 8.2348 -0.8748 0
M  V30 144 C -1.2562 9.4463 -1.5396 0
M  V30 145 C -1.6592 9.5210 -2.8791 0
M  V30 146 C -2.0190 8.3963 -3.5751 0
M  V30 147 C -2.0085 7.1404 -2.9295 0
M  V30 148 C -2.3536 5.9462 -3.5882 0
M  V30 149 N -2.3596 4.7715 -2.9880 0
M  V30 150 C -2.0472 4.6916 -1.6744 0
M  V30 151 C -1.6761 5.7878 -0.9482 0
M  V30 152 C -1.6264 7.0532 -1.5617 0
M  V30 153 H -0.9602 10.3457 -1.0208 0
M  V30 154 H -1.6731 10.4846 -3.3653 0
M  V30 155 H -2.3115 8.4617 -4.6111 0
M  V30 156 H -2.6231 5.9798 -4.6416 0
M  V30 157 H -2.1166 3.7117 -1.2242 0
M  V30 158 H -1.4252 5.7010 0.0965 0
M  V30 159 C 0.1445 7.5844 2.8469 0
M  V30 160 C 0.3608 8.5765 3.8325 0
M  V30 161 C 0.8460 8.2278 5.0603 0
M  V30 162 C 1.1434 6.8833 5.3737 0
M  V30 163 C 1.6465 6.4949 6.6349 0
M  V30 164 C 1.9250 5.1872 6.9102 0
M  V30 165 C 1.7135 4.1916 5.9253 0
M  V30 166 C 1.2240 4.5417 4.6845 0
M  V30 167 C 0.9293 5.8844 4.3843 0
M  V30 168 C 0.4266 6.2627 3.1269 0
M  V30 169 H 0.1363 9.6074 3.6010 0
M  V30 170 H 1.0107 8.9846 5.8143 0
M  V30 171 H 1.8079 7.2563 7.3848 0
M  V30 172 H 2.3091 4.8994 7.8774 0
M  V30 173 H 1.0592 3.7848 3.9337 0
M  V30 174 H 0.2697 5.5057 2.3738 0
M  V30 175 C 1.9977 2.8417 6.2138 0
M  V30 176 C 2.2253 1.6729 6.4227 0
M  V30 177 C 2.4851 0.3181 6.7027 0
M  V30 178 C 2.8057 -0.1057 7.9990 0
M  V30 179 C 3.0407 -1.4500 8.2242 0
M  V30 180 C 2.9531 -2.3396 7.1655 0
M  V30 181 N 2.6513 -1.9318 5.9286 0
M  V30 182 C 2.4240 -0.6452 5.6907 0
M  V30 183 H 2.8647 0.6119 8.8024 0
M  V30 184 H 3.2889 -1.8070 9.2107 0
M  V30 185 H 3.1256 -3.4032 7.3090 0
M  V30 186 H 2.1904 -0.3770 4.6664 0
M  V30 187 C -1.5737 -2.4399 0.1426 0
M  V30 188 C -0.5108 -2.2157 0.9976 0
M  V30 189 C 0.1788 -0.9980 0.9604 0
M  V30 190 C -0.2133 -0.0038 0.0561 0
M  V30 191 C -1.2794 -0.2536 -0.7855 0
M  V30 192 C -1.9664 -1.4587 -0.7574 0
M  V30 193 Br -1.8464 1.1292 -2.0589 0
M  V30 194 C 1.3081 -0.7600 1.8595 0
M  V30 195 O 1.7197 -1.5653 2.6743 0
M  V30 196 H -2.1044 -3.3784 0.1707 0
M  V30 197 H -0.2067 -2.9776 1.7005 0
M  V30 198 H 0.3089 0.9393 0.0205 0
M  V30 199 H -2.7954 -1.6347 -1.4241 0
M  V30 200 H 1.7902 0.2226 1.7565 0
M  V30 END ATOM
M  V30 BEGIN BOND
M  V30 1 3 3 4
M  V30 2 1 4 5
M  V30 3 2 5 6
M  V30 4 1 6 7
M  V30 5 2 7 8
M  V30 6 1 8 9
M  V30 7 2 9 10
M  V30 8 1 10 11
M  V30 9 2 11 12
M  V30 10 1 12 13
M  V30 11 2 13 14
M  V30 12 1 14 5
M  V30 13 1 14 9
M  V30 14 1 6 15
M  V30 15 1 7 16
M  V30 16 1 8 17
M  V30 17 1 10 18
M  V30 18 1 12 19
M  V30 19 1 13 20
M  V30 20 2 21 22
M  V30 21 1 22 23
M  V30 22 2 23 24
M  V30 23 1 24 25
M  V30 24 2 25 26
M  V30 25 1 26 27
M  V30 26 2 27 28
M  V30 27 1 28 29
M  V30 28 2 29 30
M  V30 29 1 30 21
M  V30 30 1 29 24
M  V30 31 1 22 31
M  V30 32 1 23 32
M  V30 33 1 25 33
M  V30 34 1 26 34
M  V30 35 1 28 35
M  V30 36 1 30 36
M  V30 37 3 37 38
M  V30 38 1 38 39
M  V30 39 2 39 40
M  V30 40 1 40 41
M  V30 41 2 41 42
M  V30 42 1 42 43
M  V30 43 2 43 44
M  V30 44 1 44 39
M  V30 45 1 40 45
M  V30 46 1 41 46
M  V30 47 1 42 47
M  V30 48 1 44 48
M  V30 49 1 3 21
M  V30 50 1 27 37
M  V30 51 3 49 50
M  V30 52 1 50 51
M  V30 53 2 51 52
M  V30 54 1 52 53
M  V30 55 2 53 54
M  V30 56 1 54 55
M  V30 57 2 55 56
M  V30 58 1 56 57
M  V30 59 2 57 58
M  V30 60 1 58 59
M  V30 61 2 59 60
M  V30 62 1 60 51
M  V30 63 1 60 55
M  V30 64 1 52 61
M  V30 65 1 53 62
M  V30 66 1 54 63
M  V30 67 1 56 64
M  V30 68 1 58 65
M  V30 69 1 59 66
M  V30 70 2 67 68
M  V30 71 1 68 69
M  V30 72 2 69 70
M  V30 73 1 70 71
M  V30 74 2 71 72
M  V30 75 1 72 73
M  V30 76 2 73 74
M  V30 77 1 74 75
M  V30 78 2 75 76
M  V30 79 1 76 67
M  V30 80 1 75 70
M  V30 81 1 68 77
M  V30 82 1 69 78
M  V30 83 1 71 79
M  V30 84 1 72 80
M  V30 85 1 74 81
M  V30 86 1 76 82
M  V30 87 3 83 84
M  V30 88 1 84 85
M  V30 89 2 85 86
M  V30 90 1 86 87
M  V30 91 2 87 88
M  V30 92 1 88 89
M  V30 93 2 89 90
M  V30 94 1 90 85
M  V30 95 1 86 91
M  V30 96 1 87 92
M  V30 97 1 88 93
M  V30 98 1 90 94
M  V30 99 1 49 67
M  V30 100 1 73 83
M  V30 101 3 95 96
M  V30 102 1 96 97
M  V30 103 2 97 98
M  V30 104 1 98 99
M  V30 105 2 99 100
M  V30 106 1 100 101
M  V30 107 2 101 102
M  V30 108 1 102 103
M  V30 109 2 103 104
M  V30 110 1 104 105
M  V30 111 2 105 106
M  V30 112 1 106 97
M  V30 113 1 106 101
M  V30 114 1 98 107
M  V30 115 1 99 108
M  V30 116 1 100 109
M  V30 117 1 102 110
M  V30 118 1 104 111
M  V30 119 1 105 112
M  V30 120 2 113 114
M  V30 121 1 114 115
M  V30 122 2 115 116
M  V30 123 1 116 117
M  V30 124 2 117 118
M  V30 125 1 118 119
M  V30 126 2 119 120
M  V30 127 1 120 121
M  V30 128 2 121 122
M  V30 129 1 122 113
M  V30 130 1 121 116
M  V30 131 1 114 123
M  V30 132 1 115 124
M  V30 133 1 117 125
M  V30 134 1 118 126
M  V30 135 1 120 127
M  V30 136 1 122 128
M  V30 137 3 129 130
M  V30 138 1 130 131
M  V30 139 2 131 132
M  V30 140 1 132 133
M  V30 141 2 133 134
M  V30 142 1 134 135
M  V30 143 2 135 136
M  V30 144 1 136 131
M  V30 145 1 132 137
M  V30 146 1 133 138
M  V30 147 1 134 139
M  V30 148 1 136 140
M  V30 149 1 95 113
M  V30 150 1 119 129
M  V30 151 3 141 142
M  V30 152 1 142 143
M  V30 153 2 143 144
M  V30 154 1 144 145
M  V30 155 2 145 146
M  V30 156 1 146 147
M  V30 157 2 147 148
M  V30 158 1 148 149
M  V30 159 2 149 150
M  V30 160 1 150 151
M  V30 161 2 151 152
M  V30 162 1 152 143
M  V30 163 1 152 147
M  V30 164 1 144 153
M  V30 165 1 145 154
M  V30 166 1 146 155
M  V30 167 1 148 156
M  V30 168 1 150 157
M  V30 169 1 151 158
M  V30 170 2 159 160
M  V30 171 1 160 161
M  V30 172 2 161 162
M  V30 173 1 162 163
M  V30 174 2 163 164
M  V30 175 1 164 165
M  V30 176 2 165 166
M  V30 177 1 166 167
M  V30 178 2 167 168
M  V30 179 1 168 159
M  V30 180 1 167 162
M  V30 181 1 160 169
M  V30 182 1 161 170
M  V30 183 1 163 171
M  V30 184 1 164 172
M  V30 185 1 166 173
M  V30 186 1 168 174
M  V30 187 3 175 176
M  V30 188 1 176 177
M  V30 189 2 177 178
M  V30 190 1 178 179
M  V30 191 2 179 180
M  V30 192 1 180 181
M  V30 193 2 181 182
M  V30 194 1 182 177
M  V30 195 1 178 183
M  V30 196 1 179 184
M  V30 197 1 180 185
M  V30 198 1 182 186
M  V30 199 1 141 159
M  V30 200 1 165 175
M  V30 201 9 43 1
M  V30 202 9 89 1
M  V30 203 9 103 1
M  V30 204 9 149 1
M  V30 205 9 11 2
M  V30 206 9 57 2
M  V30 207 9 135 2
M  V30 208 9 181 2
M  V30 209 2 187 188
M  V30 210 1 188 189
M  V30 211 2 189 190
M  V30 212 1 190 191
M  V30 213 2 191 192
M  V30 214 1 191 193
M  V30 215 1 189 194
M  V30 216 2 194 195
M  V30 217 1 192 187
M  V30 218 1 187 196
M  V30 219 1 188 197
M  V30 220 1 190 198
M  V30 221 1 192 199
M  V30 222 1 194 200
M  V30 END BOND
M  V30 END CTAB
M  END

$$$$
