
     RDKit          3D

  0  0  0  0  0  0  0  0  0  0999 V3000
M  V30 BEGIN CTAB
M  V30 COUNTS 192 214 0 0 0
M  V30 BEGIN ATOM
M  V30 1 Pd -1.4887 3.5535 -3.5316 0 CHG=2
M  V30 2 Pd 1.7485 -3.7265 3.6247 0 CHG=2
M  V30 3 C 0.1937 3.5969 5.8315 0
M  V30 4 C 0.4875 2.5701 6.3986 0
M  V30 5 C 0.7775 1.3434 7.0251 0
M  V30 6 C 0.7505 1.2162 8.4022 0
M  V30 7 C 0.9882 -0.0186 9.0176 0
M  V30 8 C 1.2416 -1.1404 8.2721 0
M  V30 9 C 1.2857 -1.0505 6.8640 0
M  V30 10 C 1.5276 -2.1683 6.0451 0
M  V30 11 N 1.5878 -2.0892 4.7325 0
M  V30 12 C 1.4192 -0.8959 4.1156 0
M  V30 13 C 1.1544 0.2460 4.8177 0
M  V30 14 C 1.0692 0.2018 6.2240 0
M  V30 15 H 0.5369 2.0822 9.0104 0
M  V30 16 H 0.9601 -0.0787 10.0949 0
M  V30 17 H 1.4099 -2.0922 8.7506 0
M  V30 18 H 1.6664 -3.1466 6.4966 0
M  V30 19 H 1.5112 -0.9186 3.0347 0
M  V30 20 H 1.0091 1.1889 4.3158 0
M  V30 21 C -0.1860 4.7352 5.0922 0
M  V30 22 C -0.5989 5.9222 5.7444 0
M  V30 23 C -1.0217 6.9962 5.0150 0
M  V30 24 C -1.0590 6.9480 3.6036 0
M  V30 25 C -1.5252 8.0212 2.8159 0
M  V30 26 C -1.5632 7.9325 1.4530 0
M  V30 27 C -1.1246 6.7616 0.7921 0
M  V30 28 C -0.6545 5.7060 1.5417 0
M  V30 29 C -0.6214 5.7667 2.9472 0
M  V30 30 C -0.1864 4.6715 3.7141 0
M  V30 31 H -0.5813 5.9633 6.8234 0
M  V30 32 H -1.3433 7.8999 5.5128 0
M  V30 33 H -1.8637 8.9197 3.3113 0
M  V30 34 H -1.9558 8.7562 0.8771 0
M  V30 35 H -0.2757 4.8134 1.0695 0
M  V30 36 H 0.1318 3.7706 3.2132 0
M  V30 37 C -1.1647 6.6699 -0.6720 0
M  V30 38 C -0.9612 7.7750 -1.5032 0
M  V30 39 C -1.0044 7.6142 -2.8781 0
M  V30 40 C -1.2153 6.3523 -3.4062 0
M  V30 41 N -1.3907 5.2929 -2.6134 0
M  V30 42 C -1.3934 5.4417 -1.2937 0
M  V30 43 H -0.7575 8.7451 -1.0782 0
M  V30 44 H -0.8625 8.4575 -3.5347 0
M  V30 45 H -1.2452 6.1846 -4.4797 0
M  V30 46 H -1.6039 4.5549 -0.7067 0
M  V30 47 C -5.7406 -1.7822 3.1805 0
M  V30 48 C -5.1231 -2.5935 3.8312 0
M  V30 49 C -4.3394 -3.5021 4.5685 0
M  V30 50 C -4.8773 -4.2666 5.5875 0
M  V30 51 C -4.0783 -5.1503 6.3235 0
M  V30 52 C -2.7388 -5.2777 6.0621 0
M  V30 53 C -2.1501 -4.5145 5.0305 0
M  V30 54 C -0.7761 -4.5823 4.7290 0
M  V30 55 N -0.2245 -3.8713 3.7680 0
M  V30 56 C -0.9868 -3.0413 3.0155 0
M  V30 57 C -2.3264 -2.8929 3.2350 0
M  V30 58 C -2.9524 -3.6229 4.2650 0
M  V30 59 H -5.9283 -4.1800 5.8190 0
M  V30 60 H -4.5337 -5.7326 7.1100 0
M  V30 61 H -2.1286 -5.9560 6.6374 0
M  V30 62 H -0.1276 -5.2439 5.2971 0
M  V30 63 H -0.4594 -2.5078 2.2312 0
M  V30 64 H -2.9191 -2.2198 2.6371 0
M  V30 65 C -6.3906 -0.8058 2.3983 0
M  V30 66 C -7.7019 -0.3769 2.7168 0
M  V30 67 C -8.3054 0.5985 1.9762 0
M  V30 68 C -7.6420 1.1974 0.8824 0
M  V30 69 C -8.2237 2.2235 0.1086 0
M  V30 70 C -7.5518 2.7835 -0.9410 0
M  V30 71 C -6.2516 2.3449 -1.2833 0
M  V30 72 C -5.6657 1.3425 -0.5426 0
M  V30 73 C -6.3337 0.7553 0.5489 0
M  V30 74 C -5.7271 -0.2495 1.3238 0
M  V30 75 H -8.2139 -0.8273 3.5542 0
M  V30 76 H -9.3043 0.9295 2.2225 0
M  V30 77 H -9.2158 2.5665 0.3637 0
M  V30 78 H -8.0091 3.5859 -1.4992 0
M  V30 79 H -4.6902 0.9603 -0.7994 0
M  V30 80 H -4.7310 -0.5789 1.0728 0
M  V30 81 C -5.5405 2.9410 -2.4212 0
M  V30 82 C -6.1988 3.3688 -3.5776 0
M  V30 83 C -5.4661 3.9064 -4.6227 0
M  V30 84 C -4.0879 3.9806 -4.5160 0
M  V30 85 N -3.4569 3.5590 -3.4180 0
M  V30 86 C -4.1525 3.0789 -2.3930 0
M  V30 87 H -7.2692 3.2672 -3.6628 0
M  V30 88 H -5.9576 4.2516 -5.5179 0
M  V30 89 H -3.4778 4.3846 -5.3199 0
M  V30 90 H -3.5898 2.8106 -1.5063 0
M  V30 91 C -1.3864 -3.8908 -5.5284 0
M  V30 92 C -1.4719 -2.9007 -6.2182 0
M  V30 93 C -1.4693 -1.6702 -6.9052 0
M  V30 94 C -1.2378 -1.5761 -8.2646 0
M  V30 95 C -1.1210 -0.3265 -8.8882 0
M  V30 96 C -1.1919 0.8373 -8.1669 0
M  V30 97 C -1.4402 0.7842 -6.7778 0
M  V30 98 C -1.4657 1.9309 -5.9633 0
M  V30 99 N -1.6951 1.8881 -4.6650 0
M  V30 100 C -2.0503 0.7045 -4.1037 0
M  V30 101 C -2.0096 -0.4729 -4.7911 0
M  V30 102 C -1.6345 -0.4763 -6.1475 0
M  V30 103 H -1.1306 -2.4764 -8.8504 0
M  V30 104 H -0.9458 -0.2914 -9.9526 0
M  V30 105 H -1.0584 1.7920 -8.6505 0
M  V30 106 H -1.2866 2.9025 -6.4105 0
M  V30 107 H -2.3811 0.7404 -3.0767 0
M  V30 108 H -2.2643 -1.4031 -4.3092 0
M  V30 109 C -1.2448 -5.0101 -4.6808 0
M  V30 110 C -1.7662 -6.2727 -5.0496 0
M  V30 111 C -1.6275 -7.3417 -4.2119 0
M  V30 112 C -0.9548 -7.2168 -2.9763 0
M  V30 113 C -0.7949 -8.3009 -2.0885 0
M  V30 114 C -0.1203 -8.1531 -0.9102 0
M  V30 115 C 0.4375 -6.9056 -0.5449 0
M  V30 116 C 0.2764 -5.8293 -1.3883 0
M  V30 117 C -0.4158 -5.9542 -2.6097 0
M  V30 118 C -0.5835 -4.8603 -3.4788 0
M  V30 119 H -2.2772 -6.3762 -5.9953 0
M  V30 120 H -2.0305 -8.3054 -4.4882 0
M  V30 121 H -1.2164 -9.2584 -2.3576 0
M  V30 122 H -0.0308 -8.9937 -0.2397 0
M  V30 123 H 0.7074 -4.8696 -1.1468 0
M  V30 124 H -0.1804 -3.8977 -3.2024 0
M  V30 125 C 1.1907 -6.7818 0.7124 0
M  V30 126 C 1.9762 -7.8306 1.2002 0
M  V30 127 C 2.6569 -7.6709 2.3944 0
M  V30 128 C 2.5674 -6.4645 3.0687 0
M  V30 129 N 1.8396 -5.4494 2.5973 0
M  V30 130 C 1.1555 -5.6073 1.4641 0
M  V30 131 H 2.0609 -8.7521 0.6461 0
M  V30 132 H 3.2572 -8.4709 2.7964 0
M  V30 133 H 3.0919 -6.3102 4.0050 0
M  V30 134 H 0.5361 -4.7727 1.1563 0
M  V30 135 C 6.0692 2.1807 -2.6509 0
M  V30 136 C 5.4652 2.8002 -3.4969 0
M  V30 137 C 4.6531 3.3853 -4.4871 0
M  V30 138 C 5.1332 3.6871 -5.7490 0
M  V30 139 C 4.2718 4.1374 -6.7576 0
M  V30 140 C 2.9223 4.2502 -6.5413 0
M  V30 141 C 2.3937 3.9636 -5.2638 0
M  V30 142 C 1.0149 3.9936 -4.9857 0
M  V30 143 N 0.5134 3.7276 -3.7949 0
M  V30 144 C 1.3664 3.5428 -2.7550 0
M  V30 145 C 2.7162 3.4426 -2.9248 0
M  V30 146 C 3.2709 3.5840 -4.2098 0
M  V30 147 H 6.1835 3.5593 -5.9630 0
M  V30 148 H 4.6837 4.3699 -7.7277 0
M  V30 149 H 2.2620 4.5540 -7.3381 0
M  V30 150 H 0.3202 4.2421 -5.7803 0
M  V30 151 H 0.9216 3.4904 -1.7729 0
M  V30 152 H 3.3673 3.2600 -2.0852 0
M  V30 153 C 6.7397 1.3683 -1.7134 0
M  V30 154 C 8.1204 1.0946 -1.8703 0
M  V30 155 C 8.7467 0.2247 -1.0261 0
M  V30 156 C 8.0351 -0.4294 0.0042 0
M  V30 157 C 8.6388 -1.3826 0.8496 0
M  V30 158 C 7.9167 -2.0256 1.8141 0
M  V30 159 C 6.5443 -1.7401 2.0036 0
M  V30 160 C 5.9393 -0.7967 1.2034 0
M  V30 161 C 6.6568 -0.1345 0.1858 0
M  V30 162 C 6.0335 0.7817 -0.6823 0
M  V30 163 H 8.6651 1.5770 -2.6683 0
M  V30 164 H 9.7990 0.0109 -1.1464 0
M  V30 165 H 9.6862 -1.6087 0.7122 0
M  V30 166 H 8.3938 -2.7790 2.4215 0
M  V30 167 H 4.9055 -0.5282 1.3553 0
M  V30 168 H 4.9869 1.0072 -0.5489 0
M  V30 169 C 5.7901 -2.4668 3.0362 0
M  V30 170 C 6.3778 -2.8477 4.2455 0
M  V30 171 C 5.6351 -3.5645 5.1686 0
M  V30 172 C 4.3189 -3.8780 4.8791 0
M  V30 173 N 3.7438 -3.4999 3.7324 0
M  V30 174 C 4.4548 -2.8197 2.8378 0
M  V30 175 H 7.3970 -2.5725 4.4669 0
M  V30 176 H 6.0718 -3.8717 6.1052 0
M  V30 177 H 3.7078 -4.4432 5.5791 0
M  V30 178 H 3.9397 -2.5619 1.9225 0
M  V30 179 C 1.7257 -0.6546 -3.1361 0
M  V30 180 C 2.0935 -1.5996 -2.1952 0
M  V30 181 C 1.5656 -1.5375 -0.9019 0
M  V30 182 C 0.6541 -0.5311 -0.5608 0
M  V30 183 C 0.2974 0.3917 -1.5220 0
M  V30 184 C 0.8261 0.3485 -2.8038 0
M  V30 185 Br -0.9722 1.7812 -1.0761 0
M  V30 186 C 1.9816 -2.5093 0.1089 0
M  V30 187 O 1.6112 -2.4873 1.2658 0
M  V30 188 H 2.1372 -0.6927 -4.1318 0
M  V30 189 H 2.7952 -2.3760 -2.4589 0
M  V30 190 H 0.2456 -0.4853 0.4375 0
M  V30 191 H 0.5477 1.0867 -3.5430 0
M  V30 192 H 2.6817 -3.2780 -0.2502 0
M  V30 END ATOM
M  V30 BEGIN BOND
M  V30 1 3 3 4
M  V30 2 1 4 5
M  V30 3 2 5 6
M  V30 4 1 6 7
M  V30 5 2 7 8
M  V30 6 1 8 9
M  V30 7 2 9 10
M  V30 8 1 10 11
M  V30 9 2 11 12
M  V30 10 1 12 13
M  V30 11 2 13 14
M  V30 12 1 14 5
M  V30 13 1 14 9
M  V30 14 1 6 15
M  V30 15 1 7 16
M  V30 16 1 8 17
M  V30 17 1 10 18
M  V30 18 1 12 19
M  V30 19 1 13 20
M  V30 20 2 21 22
M  V30 21 1 22 23
M  V30 22 2 23 24
M  V30 23 1 24 25
M  V30 24 2 25 26
M  V30 25 1 26 27
M  V30 26 2 27 28
M  V30 27 1 28 29
M  V30 28 2 29 30
M  V30 29 1 30 21
M  V30 30 1 29 24
M  V30 31 1 22 31
M  V30 32 1 23 32
M  V30 33 1 25 33
M  V30 34 1 26 34
M  V30 35 1 28 35
M  V30 36 1 30 36
M  V30 37 2 37 38
M  V30 38 1 38 39
M  V30 39 2 39 40
M  V30 40 1 40 41
M  V30 41 2 41 42
M  V30 42 1 42 37
M  V30 43 1 38 43
M  V30 44 1 39 44
M  V30 45 1 40 45
M  V30 46 1 42 46
M  V30 47 1 3 21
M  V30 48 1 27 37
M  V30 49 3 47 48
M  V30 50 1 48 49
M  V30 51 2 49 50
M  V30 52 1 50 51
M  V30 53 2 51 52
M  V30 54 1 52 53
M  V30 55 2 53 54
M  V30 56 1 54 55
M  V30 57 2 55 56
M  V30 58 1 56 57
M  V30 59 2 57 58
M  V30 60 1 58 49
M  V30 61 1 58 53
M  V30 62 1 50 59
M  V30 63 1 51 60
M  V30 64 1 52 61
M  V30 65 1 54 62
M  V30 66 1 56 63
M  V30 67 1 57 64
M  V30 68 2 65 66
M  V30 69 1 66 67
M  V30 70 2 67 68
M  V30 71 1 68 69
M  V30 72 2 69 70
M  V30 73 1 70 71
M  V30 74 2 71 72
M  V30 75 1 72 73
M  V30 76 2 73 74
M  V30 77 1 74 65
M  V30 78 1 73 68
M  V30 79 1 66 75
M  V30 80 1 67 76
M  V30 81 1 69 77
M  V30 82 1 70 78
M  V30 83 1 72 79
M  V30 84 1 74 80
M  V30 85 2 81 82
M  V30 86 1 82 83
M  V30 87 2 83 84
M  V30 88 1 84 85
M  V30 89 2 85 86
M  V30 90 1 86 81
M  V30 91 1 82 87
M  V30 92 1 83 88
M  V30 93 1 84 89
M  V30 94 1 86 90
M  V30 95 1 47 65
M  V30 96 1 71 81
M  V30 97 3 91 92
M  V30 98 1 92 93
M  V30 99 2 93 94
M  V30 100 1 94 95
M  V30 101 2 95 96
M  V30 102 1 96 97
M  V30 103 2 97 98
M  V30 104 1 98 99
M  V30 105 2 99 100
M  V30 106 1 100 101
M  V30 107 2 101 102
M  V30 108 1 102 93
M  V30 109 1 102 97
M  V30 110 1 94 103
M  V30 111 1 95 104
M  V30 112 1 96 105
M  V30 113 1 98 106
M  V30 114 1 100 107
M  V30 115 1 101 108
M  V30 116 2 109 110
M  V30 117 1 110 111
M  V30 118 2 111 112
M  V30 119 1 112 113
M  V30 120 2 113 114
M  V30 121 1 114 115
M  V30 122 2 115 116
M  V30 123 1 116 117
M  V30 124 2 117 118
M  V30 125 1 118 109
M  V30 126 1 117 112
M  V30 127 1 110 119
M  V30 128 1 111 120
M  V30 129 1 113 121
M  V30 130 1 114 122
M  V30 131 1 116 123
M  V30 132 1 118 124
M  V30 133 2 125 126
M  V30 134 1 126 127
M  V30 135 2 127 128
M  V30 136 1 128 129
M  V30 137 2 129 130
M  V30 138 1 130 125
M  V30 139 1 126 131
M  V30 140 1 127 132
M  V30 141 1 128 133
M  V30 142 1 130 134
M  V30 143 1 91 109
M  V30 144 1 115 125
M  V30 145 3 135 136
M  V30 146 1 136 137
M  V30 147 2 137 138
M  V30 148 1 138 139
M  V30 149 2 139 140
M  V30 150 1 140 141
M  V30 151 2 141 142
M  V30 152 1 142 143
M  V30 153 2 143 144
M  V30 154 1 144 145
M  V30 155 2 145 146
M  V30 156 1 146 137
M  V30 157 1 146 141
M  V30 158 1 138 147
M  V30 159 1 139 148
M  V30 160 1 140 149
M  V30 161 1 142 150
M  V30 162 1 144 151
M  V30 163 1 145 152
M  V30 164 2 153 154
M  V30 165 1 154 155
M  V30 166 2 155 156
M  V30 167 1 156 157
M  V30 168 2 157 158
M  V30 169 1 158 159
M  V30 170 2 159 160
M  V30 171 1 160 161
M  V30 172 2 161 162
M  V30 173 1 162 153
M  V30 174 1 161 156
M  V30 175 1 154 163
M  V30 176 1 155 164
M  V30 177 1 157 165
M  V30 178 1 158 166
M  V30 179 1 160 167
M  V30 180 1 162 168
M  V30 181 2 169 170
M  V30 182 1 170 171
M  V30 183 2 171 172
M  V30 184 1 172 173
M  V30 185 2 173 174
M  V30 186 1 174 169
M  V30 187 1 170 175
M  V30 188 1 171 176
M  V30 189 1 172 177
M  V30 190 1 174 178
M  V30 191 1 135 153
M  V30 192 1 159 169
M  V30 193 9 41 1
M  V30 194 9 85 1
M  V30 195 9 99 1
M  V30 196 9 143 1
M  V30 197 9 11 2
M  V30 198 9 55 2
M  V30 199 9 129 2
M  V30 200 9 173 2
M  V30 201 2 179 180
M  V30 202 1 180 181
M  V30 203 2 181 182
M  V30 204 1 182 183
M  V30 205 2 183 184
M  V30 206 1 183 185
M  V30 207 1 181 186
M  V30 208 2 186 187
M  V30 209 1 184 179
M  V30 210 1 179 188
M  V30 211 1 180 189
M  V30 212 1 182 190
M  V30 213 1 184 191
M  V30 214 1 186 192
M  V30 END BOND
M  V30 END CTAB
M  END

$$$$
