
     RDKit          3D

  0  0  0  0  0  0  0  0  0  0999 V3000
M  V30 BEGIN CTAB
M  V30 COUNTS 192 214 0 0 0
M  V30 BEGIN ATOM
M  V30 1 Pd 5.2263 0.0413 -0.0194 0 CHG=2
M  V30 2 Pd -5.4790 -0.2209 0.1191 0 CHG=2
M  V30 3 C -1.5719 4.8920 4.5364 0
M  V30 4 C -2.7363 4.6833 4.2854 0
M  V30 5 C -4.0757 4.4428 3.9257 0
M  V30 6 C -5.0903 5.2944 4.3240 0
M  V30 7 C -6.4133 5.0794 3.9196 0
M  V30 8 C -6.7392 4.0257 3.1060 0
M  V30 9 C -5.7335 3.1292 2.6843 0
M  V30 10 C -6.0037 2.0379 1.8389 0
M  V30 11 N -5.0748 1.1875 1.4558 0
M  V30 12 C -3.7981 1.3396 1.8801 0
M  V30 13 C -3.4259 2.3806 2.6831 0
M  V30 14 C -4.3879 3.3204 3.1054 0
M  V30 15 H -4.8560 6.1409 4.9517 0
M  V30 16 H -7.1783 5.7646 4.2516 0
M  V30 17 H -7.7576 3.8728 2.7856 0
M  V30 18 H -7.0135 1.8782 1.4718 0
M  V30 19 H -3.1046 0.5787 1.5374 0
M  V30 20 H -2.4040 2.4997 3.0050 0
M  V30 21 C -0.1910 5.0895 4.7379 0
M  V30 22 C 0.2867 6.2156 5.4510 0
M  V30 23 C 1.6291 6.4254 5.5858 0
M  V30 24 C 2.5656 5.5322 5.0194 0
M  V30 25 C 3.9592 5.7340 5.1031 0
M  V30 26 C 4.8354 4.8576 4.5279 0
M  V30 27 C 4.3674 3.7143 3.8394 0
M  V30 28 C 3.0107 3.4919 3.7558 0
M  V30 29 C 2.0878 4.3887 4.3252 0
M  V30 30 C 0.7021 4.1869 4.1987 0
M  V30 31 H -0.4234 6.9074 5.8793 0
M  V30 32 H 1.9939 7.2885 6.1242 0
M  V30 33 H 4.3268 6.6051 5.6259 0
M  V30 34 H 5.8951 5.0544 4.5789 0
M  V30 35 H 2.6201 2.6103 3.2726 0
M  V30 36 H 0.3422 3.3252 3.6586 0
M  V30 37 C 5.3110 2.7736 3.2243 0
M  V30 38 C 6.5703 2.5041 3.7677 0
M  V30 39 C 7.4072 1.5975 3.1386 0
M  V30 40 C 6.9669 0.9474 1.9987 0
M  V30 41 N 5.7571 1.1898 1.4897 0
M  V30 42 C 4.9622 2.0880 2.0600 0
M  V30 43 H 6.8842 2.9878 4.6791 0
M  V30 44 H 8.3869 1.3867 3.5361 0
M  V30 45 H 7.5907 0.2217 1.4832 0
M  V30 46 H 4.0192 2.2852 1.5630 0
M  V30 47 C -1.7820 5.2868 -3.8885 0
M  V30 48 C -2.9464 4.9894 -3.7517 0
M  V30 49 C -4.2817 4.5992 -3.5328 0
M  V30 50 C -5.3445 5.3389 -4.0180 0
M  V30 51 C -6.6663 4.9465 -3.7733 0
M  V30 52 C -6.9463 3.8234 -3.0390 0
M  V30 53 C -5.8898 3.0407 -2.5247 0
M  V30 54 C -6.1116 1.8901 -1.7434 0
M  V30 55 N -5.1283 1.1588 -1.2621 0
M  V30 56 C -3.8419 1.4963 -1.5221 0
M  V30 57 C -3.5193 2.6003 -2.2582 0
M  V30 58 C -4.5417 3.4194 -2.7773 0
M  V30 59 H -5.1518 6.2321 -4.5931 0
M  V30 60 H -7.4702 5.5476 -4.1702 0
M  V30 61 H -7.9670 3.5309 -2.8495 0
M  V30 62 H -7.1267 1.5730 -1.5198 0
M  V30 63 H -3.0926 0.8301 -1.1067 0
M  V30 64 H -2.4915 2.8646 -2.4473 0
M  V30 65 C -0.4070 5.5820 -3.9895 0
M  V30 66 C 0.0312 6.8314 -4.4915 0
M  V30 67 C 1.3642 7.1212 -4.5465 0
M  V30 68 C 2.3306 6.1886 -4.1088 0
M  V30 69 C 3.7146 6.4607 -4.1286 0
M  V30 70 C 4.6221 5.5365 -3.6940 0
M  V30 71 C 4.1967 4.2760 -3.2144 0
M  V30 72 C 2.8500 3.9884 -3.1885 0
M  V30 73 C 1.8945 4.9269 -3.6227 0
M  V30 74 C 0.5172 4.6463 -3.5720 0
M  V30 75 H -0.7021 7.5511 -4.8242 0
M  V30 76 H 1.6984 8.0768 -4.9248 0
M  V30 77 H 4.0492 7.4217 -4.4915 0
M  V30 78 H 5.6732 5.7809 -3.6942 0
M  V30 79 H 2.4946 3.0235 -2.8626 0
M  V30 80 H 0.1881 3.6901 -3.1962 0
M  V30 81 C 5.1778 3.2818 -2.7620 0
M  V30 82 C 6.4366 3.1454 -3.3542 0
M  V30 83 C 7.3090 2.1746 -2.8909 0
M  V30 84 C 6.9052 1.3332 -1.8686 0
M  V30 85 N 5.6980 1.4531 -1.3121 0
M  V30 86 C 4.8679 2.4066 -1.7207 0
M  V30 87 H 6.7219 3.7815 -4.1771 0
M  V30 88 H 8.2879 2.0618 -3.3281 0
M  V30 89 H 7.5569 0.5514 -1.4867 0
M  V30 90 H 3.9273 2.4934 -1.1891 0
M  V30 91 C 1.4967 -3.9944 -5.4248 0
M  V30 92 C 2.6617 -4.0188 -5.1001 0
M  V30 93 C 3.9638 -4.0143 -4.5611 0
M  V30 94 C 4.8873 -5.0056 -4.8351 0
M  V30 95 C 6.1277 -5.0313 -4.1834 0
M  V30 96 C 6.4480 -4.1019 -3.2277 0
M  V30 97 C 5.5369 -3.0655 -2.9281 0
M  V30 98 C 5.7696 -2.1135 -1.9189 0
M  V30 99 N 4.9220 -1.1442 -1.6327 0
M  V30 100 C 3.8347 -0.9724 -2.4268 0
M  V30 101 C 3.4905 -1.8646 -3.3994 0
M  V30 102 C 4.3060 -2.9867 -3.6371 0
M  V30 103 H 4.6439 -5.7779 -5.5489 0
M  V30 104 H 6.8262 -5.8173 -4.4267 0
M  V30 105 H 7.3882 -4.1562 -2.7023 0
M  V30 106 H 6.6840 -2.1695 -1.3385 0
M  V30 107 H 3.2530 -0.0789 -2.2574 0
M  V30 108 H 2.6016 -1.7201 -3.9922 0
M  V30 109 C 0.1210 -3.9541 -5.7368 0
M  V30 110 C -0.3419 -4.2917 -7.0306 0
M  V30 111 C -1.6758 -4.2376 -7.3160 0
M  V30 112 C -2.6167 -3.8606 -6.3325 0
M  V30 113 C -4.0008 -3.7943 -6.5951 0
M  V30 114 C -4.8878 -3.4469 -5.6164 0
M  V30 115 C -4.4429 -3.1417 -4.3088 0
M  V30 116 C -3.0940 -3.1816 -4.0360 0
M  V30 117 C -2.1573 -3.5363 -5.0276 0
M  V30 118 C -0.7771 -3.5818 -4.7573 0
M  V30 119 H 0.3719 -4.5858 -7.7857 0
M  V30 120 H -2.0312 -4.4886 -8.3050 0
M  V30 121 H -4.3518 -4.0259 -7.5901 0
M  V30 122 H -5.9393 -3.3835 -5.8499 0
M  V30 123 H -2.7253 -2.9733 -3.0431 0
M  V30 124 H -0.4225 -3.3312 -3.7689 0
M  V30 125 C -5.4217 -2.8059 -3.2635 0
M  V30 126 C -6.6832 -3.4073 -3.2231 0
M  V30 127 C -7.5747 -3.0496 -2.2269 0
M  V30 128 C -7.1884 -2.1221 -1.2737 0
M  V30 129 N -5.9768 -1.5616 -1.2905 0
M  V30 130 C -5.1247 -1.8774 -2.2658 0
M  V30 131 H -6.9563 -4.1518 -3.9542 0
M  V30 132 H -8.5577 -3.4900 -2.1845 0
M  V30 133 H -7.8649 -1.8249 -0.4803 0
M  V30 134 H -4.1769 -1.3514 -2.2650 0
M  V30 135 C 1.6018 -5.0279 4.5577 0
M  V30 136 C 2.7649 -4.9337 4.2370 0
M  V30 137 C 4.0602 -4.8026 3.7008 0
M  V30 138 C 4.9896 -5.8254 3.7635 0
M  V30 139 C 6.2194 -5.7213 3.1011 0
M  V30 140 C 6.5229 -4.6255 2.3344 0
M  V30 141 C 5.6066 -3.5543 2.2541 0
M  V30 142 C 5.8198 -2.4291 1.4370 0
M  V30 143 N 4.9689 -1.4242 1.3569 0
M  V30 144 C 3.9006 -1.4066 2.1944 0
M  V30 145 C 3.5740 -2.4684 2.9862 0
M  V30 146 C 4.3896 -3.6146 2.9888 0
M  V30 147 H 4.7573 -6.7219 4.3182 0
M  V30 148 H 6.9224 -6.5365 3.1787 0
M  V30 149 H 7.4535 -4.5758 1.7917 0
M  V30 150 H 6.7210 -2.3746 0.8364 0
M  V30 151 H 3.3208 -0.4963 2.2138 0
M  V30 152 H 2.6991 -2.4407 3.6155 0
M  V30 153 C 0.2272 -5.1786 4.8335 0
M  V30 154 C -0.2346 -6.3158 5.5401 0
M  V30 155 C -1.5727 -6.5168 5.7154 0
M  V30 156 C -2.5200 -5.6120 5.1868 0
M  V30 157 C -3.9093 -5.8270 5.2940 0
M  V30 158 C -4.8015 -4.9530 4.7415 0
M  V30 159 C -4.3562 -3.7963 4.0598 0
M  V30 160 C -3.0039 -3.5551 3.9618 0
M  V30 161 C -2.0613 -4.4529 4.5042 0
M  V30 162 C -0.6763 -4.2525 4.3519 0
M  V30 163 H 0.4845 -7.0210 5.9297 0
M  V30 164 H -1.9276 -7.3859 6.2504 0
M  V30 165 H -4.2596 -6.7081 5.8116 0
M  V30 166 H -5.8582 -5.1617 4.8042 0
M  V30 167 H -2.6384 -2.6586 3.4857 0
M  V30 168 H -0.3239 -3.3747 3.8330 0
M  V30 169 C -5.3427 -2.8873 3.4567 0
M  V30 170 C -6.5858 -2.6522 4.0500 0
M  V30 171 C -7.4943 -1.8173 3.4214 0
M  V30 172 C -7.1461 -1.2212 2.2223 0
M  V30 173 N -5.9509 -1.4259 1.6584 0
M  V30 174 C -5.0778 -2.2343 2.2524 0
M  V30 175 H -6.8316 -3.1038 4.9982 0
M  V30 176 H -8.4604 -1.6271 3.8606 0
M  V30 177 H -7.8366 -0.5634 1.6993 0
M  V30 178 H -4.1381 -2.3755 1.7361 0
M  V30 179 C 1.2081 -3.4115 -0.3792 0
M  V30 180 C -0.1752 -3.4023 -0.3925 0
M  V30 181 C -0.8655 -2.1954 -0.2440 0
M  V30 182 C -0.1610 -0.9945 -0.0974 0
M  V30 183 C 1.2179 -1.0322 -0.0981 0
M  V30 184 C 1.9130 -2.2255 -0.2298 0
M  V30 185 Br 2.2106 0.6174 0.0877 0
M  V30 186 C -2.3278 -2.1840 -0.2164 0
M  V30 187 O -2.9963 -1.1857 -0.0358 0
M  V30 188 H 1.7447 -4.3406 -0.4839 0
M  V30 189 H -0.7179 -4.3281 -0.5068 0
M  V30 190 H -0.6950 -0.0630 0.0152 0
M  V30 191 H 2.9940 -2.2414 -0.2149 0
M  V30 192 H -2.8000 -3.1669 -0.3613 0
M  V30 END ATOM
M  V30 BEGIN BOND
M  V30 1 3 3 4
M  V30 2 1 4 5
M  V30 3 2 5 6
M  V30 4 1 6 7
M  V30 5 2 7 8
M  V30 6 1 8 9
M  V30 7 2 9 10
M  V30 8 1 10 11
M  V30 9 2 11 12
M  V30 10 1 12 13
M  V30 11 2 13 14
M  V30 12 1 14 5
M  V30 13 1 14 9
M  V30 14 1 6 15
M  V30 15 1 7 16
M  V30 16 1 8 17
M  V30 17 1 10 18
M  V30 18 1 12 19
M  V30 19 1 13 20
M  V30 20 2 21 22
M  V30 21 1 22 23
M  V30 22 2 23 24
M  V30 23 1 24 25
M  V30 24 2 25 26
M  V30 25 1 26 27
M  V30 26 2 27 28
M  V30 27 1 28 29
M  V30 28 2 29 30
M  V30 29 1 30 21
M  V30 30 1 29 24
M  V30 31 1 22 31
M  V30 32 1 23 32
M  V30 33 1 25 33
M  V30 34 1 26 34
M  V30 35 1 28 35
M  V30 36 1 30 36
M  V30 37 2 37 38
M  V30 38 1 38 39
M  V30 39 2 39 40
M  V30 40 1 40 41
M  V30 41 2 41 42
M  V30 42 1 42 37
M  V30 43 1 38 43
M  V30 44 1 39 44
M  V30 45 1 40 45
M  V30 46 1 42 46
M  V30 47 1 3 21
M  V30 48 1 27 37
M  V30 49 3 47 48
M  V30 50 1 48 49
M  V30 51 2 49 50
M  V30 52 1 50 51
M  V30 53 2 51 52
M  V30 54 1 52 53
M  V30 55 2 53 54
M  V30 56 1 54 55
M  V30 57 2 55 56
M  V30 58 1 56 57
M  V30 59 2 57 58
M  V30 60 1 58 49
M  V30 61 1 58 53
M  V30 62 1 50 59
M  V30 63 1 51 60
M  V30 64 1 52 61
M  V30 65 1 54 62
M  V30 66 1 56 63
M  V30 67 1 57 64
M  V30 68 2 65 66
M  V30 69 1 66 67
M  V30 70 2 67 68
M  V30 71 1 68 69
M  V30 72 2 69 70
M  V30 73 1 70 71
M  V30 74 2 71 72
M  V30 75 1 72 73
M  V30 76 2 73 74
M  V30 77 1 74 65
M  V30 78 1 73 68
M  V30 79 1 66 75
M  V30 80 1 67 76
M  V30 81 1 69 77
M  V30 82 1 70 78
M  V30 83 1 72 79
M  V30 84 1 74 80
M  V30 85 2 81 82
M  V30 86 1 82 83
M  V30 87 2 83 84
M  V30 88 1 84 85
M  V30 89 2 85 86
M  V30 90 1 86 81
M  V30 91 1 82 87
M  V30 92 1 83 88
M  V30 93 1 84 89
M  V30 94 1 86 90
M  V30 95 1 47 65
M  V30 96 1 71 81
M  V30 97 3 91 92
M  V30 98 1 92 93
M  V30 99 2 93 94
M  V30 100 1 94 95
M  V30 101 2 95 96
M  V30 102 1 96 97
M  V30 103 2 97 98
M  V30 104 1 98 99
M  V30 105 2 99 100
M  V30 106 1 100 101
M  V30 107 2 101 102
M  V30 108 1 102 93
M  V30 109 1 102 97
M  V30 110 1 94 103
M  V30 111 1 95 104
M  V30 112 1 96 105
M  V30 113 1 98 106
M  V30 114 1 100 107
M  V30 115 1 101 108
M  V30 116 2 109 110
M  V30 117 1 110 111
M  V30 118 2 111 112
M  V30 119 1 112 113
M  V30 120 2 113 114
M  V30 121 1 114 115
M  V30 122 2 115 116
M  V30 123 1 116 117
M  V30 124 2 117 118
M  V30 125 1 118 109
M  V30 126 1 117 112
M  V30 127 1 110 119
M  V30 128 1 111 120
M  V30 129 1 113 121
M  V30 130 1 114 122
M  V30 131 1 116 123
M  V30 132 1 118 124
M  V30 133 2 125 126
M  V30 134 1 126 127
M  V30 135 2 127 128
M  V30 136 1 128 129
M  V30 137 2 129 130
M  V30 138 1 130 125
M  V30 139 1 126 131
M  V30 140 1 127 132
M  V30 141 1 128 133
M  V30 142 1 130 134
M  V30 143 1 91 109
M  V30 144 1 115 125
M  V30 145 3 135 136
M  V30 146 1 136 137
M  V30 147 2 137 138
M  V30 148 1 138 139
M  V30 149 2 139 140
M  V30 150 1 140 141
M  V30 151 2 141 142
M  V30 152 1 142 143
M  V30 153 2 143 144
M  V30 154 1 144 145
M  V30 155 2 145 146
M  V30 156 1 146 137
M  V30 157 1 146 141
M  V30 158 1 138 147
M  V30 159 1 139 148
M  V30 160 1 140 149
M  V30 161 1 142 150
M  V30 162 1 144 151
M  V30 163 1 145 152
M  V30 164 2 153 154
M  V30 165 1 154 155
M  V30 166 2 155 156
M  V30 167 1 156 157
M  V30 168 2 157 158
M  V30 169 1 158 159
M  V30 170 2 159 160
M  V30 171 1 160 161
M  V30 172 2 161 162
M  V30 173 1 162 153
M  V30 174 1 161 156
M  V30 175 1 154 163
M  V30 176 1 155 164
M  V30 177 1 157 165
M  V30 178 1 158 166
M  V30 179 1 160 167
M  V30 180 1 162 168
M  V30 181 2 169 170
M  V30 182 1 170 171
M  V30 183 2 171 172
M  V30 184 1 172 173
M  V30 185 2 173 174
M  V30 186 1 174 169
M  V30 187 1 170 175
M  V30 188 1 171 176
M  V30 189 1 172 177
M  V30 190 1 174 178
M  V30 191 1 135 153
M  V30 192 1 159 169
M  V30 193 9 41 1
M  V30 194 9 85 1
M  V30 195 9 99 1
M  V30 196 9 143 1
M  V30 197 9 11 2
M  V30 198 9 55 2
M  V30 199 9 129 2
M  V30 200 9 173 2
M  V30 201 2 179 180
M  V30 202 1 180 181
M  V30 203 2 181 182
M  V30 204 1 182 183
M  V30 205 2 183 184
M  V30 206 1 183 185
M  V30 207 1 181 186
M  V30 208 2 186 187
M  V30 209 1 184 179
M  V30 210 1 179 188
M  V30 211 1 180 189
M  V30 212 1 182 190
M  V30 213 1 184 191
M  V30 214 1 186 192
M  V30 END BOND
M  V30 END CTAB
M  END

$$$$
