
     RDKit          3D

  0  0  0  0  0  0  0  0  0  0999 V3000
M  V30 BEGIN CTAB
M  V30 COUNTS 186 208 0 0 0
M  V30 BEGIN ATOM
M  V30 1 Pd -3.6724 3.7381 4.4674 0 CHG=2
M  V30 2 Pd 3.7303 -3.7502 -4.4414 0 CHG=2
M  V30 3 C -0.0510 2.9231 -4.8431 0
M  V30 4 C 0.6101 2.2824 -5.6041 0
M  V30 5 C 1.4605 1.5151 -6.4546 0
M  V30 6 C 1.9456 2.0811 -7.6357 0
M  V30 7 C 2.8230 1.3672 -8.4523 0
M  V30 8 C 3.2502 0.0925 -8.0869 0
M  V30 9 C 2.7773 -0.5071 -6.8889 0
M  V30 10 C 3.2386 -1.7774 -6.4702 0
M  V30 11 N 2.8738 -2.5398 -5.1807 0
M  V30 12 C 1.8777 -1.7829 -4.5931 0
M  V30 13 C 1.3573 -0.4123 -4.9763 0
M  V30 14 C 1.8461 0.2027 -6.0817 0
M  V30 15 H 1.6443 3.0768 -7.9222 0
M  V30 16 H 3.1826 1.8154 -9.3635 0
M  V30 17 H 3.9484 -0.4355 -8.7210 0
M  V30 18 H 3.9507 -2.3044 -7.0479 0
M  V30 19 H 1.4698 -2.2121 -3.7269 0
M  V30 20 H 0.6196 0.0615 -4.3256 0
M  V30 21 C -0.8369 3.6487 -3.9069 0
M  V30 22 C -1.2452 4.9455 -4.2178 0
M  V30 23 C -2.0043 5.6716 -3.3090 0
M  V30 24 C -2.3390 5.1061 -2.0850 0
M  V30 25 C -1.9401 3.8001 -1.7761 0
M  V30 26 C -1.1853 3.0714 -2.6875 0
M  V30 27 H -0.9753 5.3909 -5.1628 0
M  V30 28 H -2.3295 6.6671 -3.5471 0
M  V30 29 H -2.2251 3.3466 -0.8365 0
M  V30 30 H -0.8708 2.0673 -2.4543 0
M  V30 31 C -3.1835 5.7834 -1.1636 0
M  V30 32 C -3.8973 6.3893 -0.4225 0
M  V30 33 C -4.7592 7.1508 0.4222 0
M  V30 34 C -5.4426 8.2364 -0.1192 0
M  V30 35 C -6.4005 8.9133 0.6332 0
M  V30 36 C -6.7170 8.4946 1.9243 0
M  V30 37 C -6.0482 7.3900 2.4979 0
M  V30 38 C -6.3409 6.9478 3.7428 0
M  V30 39 C -5.5683 5.7727 4.3222 0
M  V30 40 N -4.5275 5.0349 3.7839 0
M  V30 41 C -4.3395 5.6305 2.3627 0
M  V30 42 C -5.0373 6.7136 1.7564 0
M  V30 43 H -5.2355 8.5503 -1.1285 0
M  V30 44 H -6.9084 9.7598 0.2027 0
M  V30 45 H -7.4752 9.0215 2.4843 0
M  V30 46 H -7.1146 7.4040 4.3637 0
M  V30 47 H -5.8623 5.4636 5.2776 0
M  V30 48 H -3.5630 5.1493 1.8311 0
M  V30 49 C 4.9574 2.7963 -0.5921 0
M  V30 50 C 5.5673 2.1842 -1.4171 0
M  V30 51 C 6.2340 1.3880 -2.4000 0
M  V30 52 C 7.3282 1.9458 -3.0689 0
M  V30 53 C 7.9570 1.2498 -4.1011 0
M  V30 54 C 7.4857 -0.0000 -4.4961 0
M  V30 55 C 6.3735 -0.5889 -3.8364 0
M  V30 56 C 5.8505 -1.8326 -4.2525 0
M  V30 57 N 4.6419 -2.5776 -3.6850 0
M  V30 58 C 4.2465 -1.8485 -2.5785 0
M  V30 59 C 4.7450 -0.5020 -2.0965 0
M  V30 60 C 5.7604 0.1032 -2.7559 0
M  V30 61 H 7.6897 2.9294 -2.7976 0
M  V30 62 H 8.8031 1.6898 -4.6026 0
M  V30 63 H 7.9722 -0.5179 -5.3106 0
M  V30 64 H 6.2773 -2.3499 -5.0693 0
M  V30 65 H 3.4586 -2.2755 -2.0286 0
M  V30 66 H 4.2505 -0.0414 -1.2391 0
M  V30 67 C 4.1842 3.4851 0.3811 0
M  V30 68 C 4.7673 4.5359 1.0882 0
M  V30 69 C 4.0292 5.2240 2.0421 0
M  V30 70 C 2.7045 4.8705 2.2730 0
M  V30 71 C 2.1102 3.8347 1.5475 0
M  V30 72 C 2.8513 3.1403 0.5987 0
M  V30 73 H 5.7959 4.8123 0.9078 0
M  V30 74 H 4.4828 6.0182 2.6086 0
M  V30 75 H 1.0818 3.5590 1.7281 0
M  V30 76 H 2.4010 2.3429 0.0330 0
M  V30 77 C 1.9750 5.4900 3.3261 0
M  V30 78 C 1.3996 6.0335 4.2203 0
M  V30 79 C 0.7557 6.7159 5.2973 0
M  V30 80 C 1.4838 7.6698 6.0042 0
M  V30 81 C 0.9428 8.2650 7.1415 0
M  V30 82 C -0.3192 7.8979 7.6049 0
M  V30 83 C -1.0792 6.9314 6.9086 0
M  V30 84 C -2.3003 6.5398 7.3404 0
M  V30 85 C -3.0855 5.5125 6.5405 0
M  V30 86 N -2.7708 4.8792 5.3551 0
M  V30 87 C -1.3482 5.3981 5.0100 0
M  V30 88 C -0.5551 6.3417 5.7221 0
M  V30 89 H 2.4728 7.9418 5.6764 0
M  V30 90 H 1.5165 9.0056 7.6726 0
M  V30 91 H -0.7132 8.3582 8.4986 0
M  V30 92 H -2.7584 6.9346 8.2498 0
M  V30 93 H -4.0093 5.2327 6.9420 0
M  V30 94 H -0.9792 4.9804 4.1109 0
M  V30 95 C -0.1382 -3.0756 4.8260 0
M  V30 96 C -0.8394 -2.4546 5.5709 0
M  V30 97 C -1.6750 -1.6511 6.4032 0
M  V30 98 C -2.2320 -2.2388 7.5435 0
M  V30 99 C -3.1276 -1.5262 8.3405 0
M  V30 100 C -3.4979 -0.2282 7.9965 0
M  V30 101 C -2.9489 0.3926 6.8425 0
M  V30 102 C -3.3494 1.6880 6.4485 0
M  V30 103 N -2.8996 2.4718 5.2184 0
M  V30 104 C -1.8933 1.7136 4.6443 0
M  V30 105 C -1.4400 0.3123 4.9977 0
M  V30 106 C -2.0027 -0.3198 6.0548 0
M  V30 107 H -1.9800 -3.2564 7.8104 0
M  V30 108 H -3.5443 -1.9905 9.2190 0
M  V30 109 H -4.2089 0.3026 8.6140 0
M  V30 110 H -4.0675 2.2234 7.0085 0
M  V30 111 H -1.4219 2.1584 3.8159 0
M  V30 112 H -0.6843 -0.1634 4.3695 0
M  V30 113 C 0.6810 -3.7645 3.8915 0
M  V30 114 C 0.7509 -3.3481 2.5640 0
M  V30 115 C 1.5495 -4.0472 1.6663 0
M  V30 116 C 2.2652 -5.1670 2.0962 0
M  V30 117 C 2.1968 -5.5803 3.4236 0
M  V30 118 C 1.3905 -4.8879 4.3182 0
M  V30 119 H 0.1841 -2.4932 2.2371 0
M  V30 120 H 1.6155 -3.7159 0.6408 0
M  V30 121 H 2.7645 -6.4322 3.7541 0
M  V30 122 H 1.3259 -5.2189 5.3443 0
M  V30 123 C 3.1691 -5.7954 1.2010 0
M  V30 124 C 3.9439 -6.3548 0.4848 0
M  V30 125 C 4.8845 -7.0590 -0.3306 0
M  V30 126 C 5.6341 -8.0797 0.2468 0
M  V30 127 C 6.6557 -8.6998 -0.4696 0
M  V30 128 C 6.9771 -8.2796 -1.7588 0
M  V30 129 C 6.2540 -7.2279 -2.3652 0
M  V30 130 C 6.5520 -6.7830 -3.6077 0
M  V30 131 C 5.7225 -5.6629 -4.2199 0
M  V30 132 N 4.6178 -4.9800 -3.7160 0
M  V30 133 C 4.4371 -5.5744 -2.2948 0
M  V30 134 C 5.1801 -6.6109 -1.6600 0
M  V30 135 H 5.4200 -8.3945 1.2541 0
M  V30 136 H 7.2065 -9.5052 -0.0132 0
M  V30 137 H 7.7826 -8.7631 -2.2913 0
M  V30 138 H 7.3685 -7.1983 -4.2025 0
M  V30 139 H 6.0248 -5.3480 -5.1731 0
M  V30 140 H 3.6230 -5.1330 -1.7899 0
M  V30 141 C -5.0008 -2.6347 0.4102 0
M  V30 142 C -5.6204 -2.0107 1.2194 0
M  V30 143 C -6.3092 -1.2123 2.1816 0
M  V30 144 C -7.4464 -1.7550 2.7970 0
M  V30 145 C -8.0971 -1.0632 3.8194 0
M  V30 146 C -7.5988 0.1580 4.2675 0
M  V30 147 C -6.4336 0.7184 3.6771 0
M  V30 148 C -5.8797 1.9283 4.1544 0
M  V30 149 N -4.6094 2.6361 3.6710 0
M  V30 150 C -4.1958 1.9165 2.5610 0
M  V30 151 C -4.7262 0.6074 2.0161 0
M  V30 152 C -5.7985 0.0335 2.6048 0
M  V30 153 H -7.8325 -2.7194 2.4863 0
M  V30 154 H -8.9819 -1.4821 4.2701 0
M  V30 155 H -8.1028 0.6744 5.0723 0
M  V30 156 H -6.3253 2.4405 4.9626 0
M  V30 157 H -3.3605 2.3217 2.0663 0
M  V30 158 H -4.2094 0.1461 1.1724 0
M  V30 159 C -4.2189 -3.3315 -0.5551 0
M  V30 160 C -3.0098 -2.8203 -1.0056 0
M  V30 161 C -2.2511 -3.5557 -1.9066 0
M  V30 162 C -2.6897 -4.8132 -2.3326 0
M  V30 163 C -3.8939 -5.3324 -1.8716 0
M  V30 164 C -4.6518 -4.5981 -0.9676 0
M  V30 165 H -2.6769 -1.8586 -0.6644 0
M  V30 166 H -1.3295 -3.1386 -2.2875 0
M  V30 167 H -4.2341 -6.2923 -2.2158 0
M  V30 168 H -5.5797 -5.0148 -0.5940 0
M  V30 169 C -1.9320 -5.4879 -3.3250 0
M  V30 170 C -1.3269 -6.0887 -4.1612 0
M  V30 171 C -0.6477 -6.8414 -5.1681 0
M  V30 172 C -1.3404 -7.8483 -5.8359 0
M  V30 173 C -0.7607 -8.5050 -6.9201 0
M  V30 174 C 0.5040 -8.1410 -7.3787 0
M  V30 175 C 1.2279 -7.1154 -6.7300 0
M  V30 176 C 2.4513 -6.7266 -7.1579 0
M  V30 177 C 3.1990 -5.6401 -6.4017 0
M  V30 178 N 2.8469 -4.9461 -5.2541 0
M  V30 179 C 1.4237 -5.4625 -4.9231 0
M  V30 180 C 0.6657 -6.4634 -5.5949 0
M  V30 181 H -2.3332 -8.1173 -5.5169 0
M  V30 182 H -1.3060 -9.2918 -7.4137 0
M  V30 183 H 0.9282 -8.6496 -8.2316 0
M  V30 184 H 2.9382 -7.1670 -8.0305 0
M  V30 185 H 4.1266 -5.3648 -6.8023 0
M  V30 186 H 1.0276 -5.0027 -4.0585 0
M  V30 END ATOM
M  V30 BEGIN BOND
M  V30 1 3 3 4
M  V30 2 1 4 5
M  V30 3 2 5 6
M  V30 4 1 6 7
M  V30 5 2 7 8
M  V30 6 1 8 9
M  V30 7 2 9 10
M  V30 8 1 10 11
M  V30 9 2 11 12
M  V30 10 1 12 13
M  V30 11 2 13 14
M  V30 12 1 14 5
M  V30 13 1 14 9
M  V30 14 1 6 15
M  V30 15 1 7 16
M  V30 16 1 8 17
M  V30 17 1 10 18
M  V30 18 1 12 19
M  V30 19 1 13 20
M  V30 20 2 21 22
M  V30 21 1 22 23
M  V30 22 2 23 24
M  V30 23 1 24 25
M  V30 24 2 25 26
M  V30 25 1 26 21
M  V30 26 1 22 27
M  V30 27 1 23 28
M  V30 28 1 25 29
M  V30 29 1 26 30
M  V30 30 3 31 32
M  V30 31 1 32 33
M  V30 32 2 33 34
M  V30 33 1 34 35
M  V30 34 2 35 36
M  V30 35 1 36 37
M  V30 36 2 37 38
M  V30 37 1 38 39
M  V30 38 2 39 40
M  V30 39 1 40 41
M  V30 40 2 41 42
M  V30 41 1 42 33
M  V30 42 1 42 37
M  V30 43 1 34 43
M  V30 44 1 35 44
M  V30 45 1 36 45
M  V30 46 1 38 46
M  V30 47 1 39 47
M  V30 48 1 41 48
M  V30 49 1 3 21
M  V30 50 1 24 31
M  V30 51 3 49 50
M  V30 52 1 50 51
M  V30 53 2 51 52
M  V30 54 1 52 53
M  V30 55 2 53 54
M  V30 56 1 54 55
M  V30 57 2 55 56
M  V30 58 1 56 57
M  V30 59 2 57 58
M  V30 60 1 58 59
M  V30 61 2 59 60
M  V30 62 1 60 51
M  V30 63 1 60 55
M  V30 64 1 52 61
M  V30 65 1 53 62
M  V30 66 1 54 63
M  V30 67 1 56 64
M  V30 68 1 58 65
M  V30 69 1 59 66
M  V30 70 2 67 68
M  V30 71 1 68 69
M  V30 72 2 69 70
M  V30 73 1 70 71
M  V30 74 2 71 72
M  V30 75 1 72 67
M  V30 76 1 68 73
M  V30 77 1 69 74
M  V30 78 1 71 75
M  V30 79 1 72 76
M  V30 80 3 77 78
M  V30 81 1 78 79
M  V30 82 2 79 80
M  V30 83 1 80 81
M  V30 84 2 81 82
M  V30 85 1 82 83
M  V30 86 2 83 84
M  V30 87 1 84 85
M  V30 88 2 85 86
M  V30 89 1 86 87
M  V30 90 2 87 88
M  V30 91 1 88 79
M  V30 92 1 88 83
M  V30 93 1 80 89
M  V30 94 1 81 90
M  V30 95 1 82 91
M  V30 96 1 84 92
M  V30 97 1 85 93
M  V30 98 1 87 94
M  V30 99 1 49 67
M  V30 100 1 70 77
M  V30 101 3 95 96
M  V30 102 1 96 97
M  V30 103 2 97 98
M  V30 104 1 98 99
M  V30 105 2 99 100
M  V30 106 1 100 101
M  V30 107 2 101 102
M  V30 108 1 102 103
M  V30 109 2 103 104
M  V30 110 1 104 105
M  V30 111 2 105 106
M  V30 112 1 106 97
M  V30 113 1 106 101
M  V30 114 1 98 107
M  V30 115 1 99 108
M  V30 116 1 100 109
M  V30 117 1 102 110
M  V30 118 1 104 111
M  V30 119 1 105 112
M  V30 120 2 113 114
M  V30 121 1 114 115
M  V30 122 2 115 116
M  V30 123 1 116 117
M  V30 124 2 117 118
M  V30 125 1 118 113
M  V30 126 1 114 119
M  V30 127 1 115 120
M  V30 128 1 117 121
M  V30 129 1 118 122
M  V30 130 3 123 124
M  V30 131 1 124 125
M  V30 132 2 125 126
M  V30 133 1 126 127
M  V30 134 2 127 128
M  V30 135 1 128 129
M  V30 136 2 129 130
M  V30 137 1 130 131
M  V30 138 2 131 132
M  V30 139 1 132 133
M  V30 140 2 133 134
M  V30 141 1 134 125
M  V30 142 1 134 129
M  V30 143 1 126 135
M  V30 144 1 127 136
M  V30 145 1 128 137
M  V30 146 1 130 138
M  V30 147 1 131 139
M  V30 148 1 133 140
M  V30 149 1 95 113
M  V30 150 1 116 123
M  V30 151 3 141 142
M  V30 152 1 142 143
M  V30 153 2 143 144
M  V30 154 1 144 145
M  V30 155 2 145 146
M  V30 156 1 146 147
M  V30 157 2 147 148
M  V30 158 1 148 149
M  V30 159 2 149 150
M  V30 160 1 150 151
M  V30 161 2 151 152
M  V30 162 1 152 143
M  V30 163 1 152 147
M  V30 164 1 144 153
M  V30 165 1 145 154
M  V30 166 1 146 155
M  V30 167 1 148 156
M  V30 168 1 150 157
M  V30 169 1 151 158
M  V30 170 2 159 160
M  V30 171 1 160 161
M  V30 172 2 161 162
M  V30 173 1 162 163
M  V30 174 2 163 164
M  V30 175 1 164 159
M  V30 176 1 160 165
M  V30 177 1 161 166
M  V30 178 1 163 167
M  V30 179 1 164 168
M  V30 180 3 169 170
M  V30 181 1 170 171
M  V30 182 2 171 172
M  V30 183 1 172 173
M  V30 184 2 173 174
M  V30 185 1 174 175
M  V30 186 2 175 176
M  V30 187 1 176 177
M  V30 188 2 177 178
M  V30 189 1 178 179
M  V30 190 2 179 180
M  V30 191 1 180 171
M  V30 192 1 180 175
M  V30 193 1 172 181
M  V30 194 1 173 182
M  V30 195 1 174 183
M  V30 196 1 176 184
M  V30 197 1 177 185
M  V30 198 1 179 186
M  V30 199 1 141 159
M  V30 200 1 162 169
M  V30 201 9 40 1
M  V30 202 9 86 1
M  V30 203 9 103 1
M  V30 204 9 149 1
M  V30 205 9 11 2
M  V30 206 9 57 2
M  V30 207 9 132 2
M  V30 208 9 178 2
M  V30 END BOND
M  V30 END CTAB
M  END

$$$$
