Lattice="     31.84399986       0.00000000       0.00000000       0.00000000      48.85100174       0.00000000       0.00000000       0.00000000      33.75500107" Properties=species:S:1:pos:R:3
 OpenBabel12142113563D

344372  0  0  0  0  0  0  0  0999 V2000
   11.9230   11.2350    2.2020 Pt  0  0  0  0  0  0  0  0  0  0  0  0
    5.7180   20.9680   18.8710 Pt  0  0  0  0  0  0  0  0  0  0  0  0
    6.2170   25.3920    8.2960 Pt  0  0  0  0  0  0  0  0  0  0  0  0
   11.4250    6.8110   12.7770 Pt  0  0  0  0  0  0  0  0  0  0  0  0
   16.5450   20.9140    6.2900 Pt  0  0  0  0  0  0  0  0  0  0  0  0
    1.0960   11.2890   14.7830 Pt  0  0  0  0  0  0  0  0  0  0  0  0
    1.6210   15.7480    4.2810 Pt  0  0  0  0  0  0  0  0  0  0  0  0
   16.0200   16.4550   16.7920 Pt  0  0  0  0  0  0  0  0  0  0  0  0
    5.7760   21.9170   16.8770 N   0  0  0  0  0  4  0  0  0  0  0  0
   11.8650   10.2860    4.1960 N   0  0  0  0  0  0  0  0  0  0  0  0
   12.8370   13.0580    2.9630 N   0  0  0  0  0  0  0  0  0  0  0  0
    4.8050   19.1450   18.1100 N   0  0  0  0  0  0  0  0  0  0  0  0
    8.2160   24.6160    7.9260 N   0  0  0  0  0  0  0  0  0  0  0  0
    9.4260    7.5870   13.1470 N   0  0  0  0  0  0  0  0  0  0  0  0
    9.9890   12.1660    2.5390 N   0  0  0  0  0  0  0  0  0  0  0  0
    7.6530   20.0370   18.5340 N   0  0  0  0  0  0  0  0  0  0  0  0
   15.7130   19.0710    5.4660 N   0  0  0  0  0  0  0  0  0  0  0  0
    1.9290   13.1320   15.6070 N   0  0  0  0  0  4  0  0  0  0  0  0
    5.3620   23.5500    7.5250 N   0  0  0  0  0  0  0  0  0  0  0  0
   12.2800    8.6530   13.5480 N   0  0  0  0  0  0  0  0  0  0  0  0
   14.6210   21.8880    6.6170 N   0  0  0  0  0  0  0  0  0  0  0  0
    3.0210   10.3150   14.4560 N   0  0  0  0  0  0  0  0  0  0  0  0
    3.6070   15.0390    3.8390 N   0  0  0  0  0  0  0  0  0  0  0  0
   14.0350   17.1640   17.2330 N   0  0  0  0  0  0  0  0  0  0  0  0
   16.4060   20.0660    8.2750 N   0  0  0  0  0  0  0  0  0  0  0  0
    1.2360   12.1370   12.7980 N   0  0  0  0  0  0  0  0  0  0  0  0
    2.4310   17.6150    5.0510 N   0  0  0  0  0  0  0  0  0  0  0  0
   15.2110   14.5880   16.0220 N   0  0  0  0  0  0  0  0  0  0  0  0
   15.9670   17.3640   14.7870 N   0  0  0  0  0  0  0  0  0  0  0  0
    1.6740   14.8390    6.2860 N   0  0  0  0  0  0  0  0  0  0  0  0
    5.9260   23.0350   14.3270 C   0  0  0  0  0  0  0  0  0  0  0  0
   11.7160    9.1680    6.7450 C   0  0  0  0  0  0  0  0  0  0  0  0
    7.0860   22.6520   14.9910 C   0  0  0  0  0  0  0  0  0  0  0  0
   10.5560    9.5510    6.0820 C   0  0  0  0  0  0  0  0  0  0  0  0
    7.9400   22.7590   14.5920 H   0  0  0  0  0  0  0  0  0  0  0  0
    9.7010    9.4440    6.4810 H   0  0  0  0  0  0  0  0  0  0  0  0
    6.9470   22.1070   16.2600 C   0  0  0  0  0  0  0  0  0  0  0  0
   10.6950   10.0960    4.8130 C   0  0  0  0  0  0  0  0  0  0  0  0
    7.8371   21.8195   16.7796 H   0  0  0  0  0  0  0  0  0  0  0  0
    9.9050   10.3480    4.3510 H   0  0  0  0  0  0  0  0  0  0  0  0
    4.6930   22.3300   16.2320 C   0  0  0  0  0  0  0  0  0  0  0  0
   12.9480    9.8730    4.8400 C   0  0  0  0  0  0  0  0  0  0  0  0
    3.8540   22.2260   16.6670 H   0  0  0  0  0  0  0  0  0  0  0  0
   13.7870    9.9770    4.4060 H   0  0  0  0  0  0  0  0  0  0  0  0
    4.6970   22.8900   14.9850 C   0  0  0  0  0  0  0  0  0  0  0  0
   12.9440    9.3130    6.0880 C   0  0  0  0  0  0  0  0  0  0  0  0
    3.8880   23.1730   14.5760 H   0  0  0  0  0  0  0  0  0  0  0  0
   13.7540    9.0300    6.4970 H   0  0  0  0  0  0  0  0  0  0  0  0
   13.6850   13.0550    3.9910 C   0  0  0  0  0  0  0  0  0  0  0  0
    3.9570   19.1480   17.0820 C   0  0  0  0  0  0  0  0  0  0  0  0
   13.8900   12.2230    4.4000 H   0  0  0  0  0  0  0  0  0  0  0  0
    3.7510   19.9800   16.6730 H   0  0  0  0  0  0  0  0  0  0  0  0
   14.2820   14.1950    4.4970 C   0  0  0  0  0  0  0  0  0  0  0  0
    3.3600   18.0080   16.5760 C   0  0  0  0  0  0  0  0  0  0  0  0
   14.9130   14.1270    5.2030 H   0  0  0  0  0  0  0  0  0  0  0  0
    2.7280   18.0760   15.8700 H   0  0  0  0  0  0  0  0  0  0  0  0
   13.9620   15.4450    3.9740 C   0  0  0  0  0  0  0  0  0  0  0  0
    3.6790   16.7580   17.0990 C   0  0  0  0  0  0  0  0  0  0  0  0
   13.0740   15.4450    2.8950 C   0  0  0  0  0  0  0  0  0  0  0  0
    4.5670   16.7580   18.1770 C   0  0  0  0  0  0  0  0  0  0  0  0
   12.8200   16.2630    2.4860 H   0  0  0  0  0  0  0  0  0  0  0  0
    4.8220   15.9400   18.5870 H   0  0  0  0  0  0  0  0  0  0  0  0
   12.5730   14.2560    2.4360 C   0  0  0  0  0  0  0  0  0  0  0  0
    5.0680   17.9470   18.6370 C   0  0  0  0  0  0  0  0  0  0  0  0
   11.9940   14.2850    1.6830 H   0  0  0  0  0  0  0  0  0  0  0  0
    5.6480   17.9180   19.3900 H   0  0  0  0  0  0  0  0  0  0  0  0
    8.4270   23.7630    6.9120 C   0  0  0  0  0  0  0  0  0  0  0  0
    9.2150    8.4400   14.1610 C   0  0  0  0  0  0  0  0  0  0  0  0
    7.6910   23.5170    6.3620 H   0  0  0  0  0  0  0  0  0  0  0  0
    9.9510    8.6860   14.7100 H   0  0  0  0  0  0  0  0  0  0  0  0
    9.6550   23.2280    6.6340 C   0  0  0  0  0  0  0  0  0  0  0  0
    7.9870    8.9750   14.4390 C   0  0  0  0  0  0  0  0  0  0  0  0
    9.7550   22.5960    5.9300 H   0  0  0  0  0  0  0  0  0  0  0  0
    7.8870    9.6070   15.1430 H   0  0  0  0  0  0  0  0  0  0  0  0
   10.7570   23.6110    7.3900 C   0  0  0  0  0  0  0  0  0  0  0  0
    6.8850    8.5920   13.6830 C   0  0  0  0  0  0  0  0  0  0  0  0
   10.5540   24.5230    8.4230 C   0  0  0  0  0  0  0  0  0  0  0  0
    7.0880    7.6800   12.6500 C   0  0  0  0  0  0  0  0  0  0  0  0
   11.2760   24.7980    8.9740 H   0  0  0  0  0  0  0  0  0  0  0  0
    6.3650    7.4050   12.0990 H   0  0  0  0  0  0  0  0  0  0  0  0
    9.2890   25.0120    8.6340 C   0  0  0  0  0  0  0  0  0  0  0  0
    8.3530    7.1910   12.4390 C   0  0  0  0  0  0  0  0  0  0  0  0
    9.1650   25.6650    9.3120 H   0  0  0  0  0  0  0  0  0  0  0  0
    8.4770    6.5380   11.7610 H   0  0  0  0  0  0  0  0  0  0  0  0
   11.0120    9.5060    1.4690 C   0  0  0  0  0  0  0  0  0  0  0  0
    6.6290   22.6970   19.6040 C   0  0  0  0  0  0  0  0  0  0  0  0
   10.5750    9.7050    0.6150 H   0  0  0  0  0  0  0  0  0  0  0  0
    7.0660   22.4980   20.4580 H   0  0  0  0  0  0  0  0  0  0  0  0
   10.3440    9.1910    2.1130 H   0  0  0  0  0  0  0  0  0  0  0  0
    7.2970   23.0120   18.9600 H   0  0  0  0  0  0  0  0  0  0  0  0
   11.6910    8.8110    1.3360 H   0  0  0  0  0  0  0  0  0  0  0  0
    5.9510   23.3920   19.7370 H   0  0  0  0  0  0  0  0  0  0  0  0
   11.9960   11.9990    0.2820 C   0  0  0  0  0  0  0  0  0  0  0  0
    5.6450   20.2040   20.7910 C   0  0  0  0  0  0  0  0  0  0  0  0
   12.8870   12.3680    0.1120 H   0  0  0  0  0  0  0  0  0  0  0  0
    4.7540   19.8350   20.9610 H   0  0  0  0  0  0  0  0  0  0  0  0
   11.3250   12.7060    0.1870 H   0  0  0  0  0  0  0  0  0  0  0  0
    6.3170   19.4970   20.8860 H   0  0  0  0  0  0  0  0  0  0  0  0
   13.7800   10.3530    1.7410 C   0  0  0  0  0  0  0  0  0  0  0  0
    3.8620   21.8500   19.3320 C   0  0  0  0  0  0  0  0  0  0  0  0
   13.9270   10.3920    0.7720 H   0  0  0  0  0  0  0  0  0  0  0  0
    3.7140   21.8110   20.3010 H   0  0  0  0  0  0  0  0  0  0  0  0
   13.7810    9.4200    2.0340 H   0  0  0  0  0  0  0  0  0  0  0  0
    3.8610   22.7830   19.0390 H   0  0  0  0  0  0  0  0  0  0  0  0
   14.4960   10.8420    2.1990 H   0  0  0  0  0  0  0  0  0  0  0  0
    3.1460   21.3610   18.8740 H   0  0  0  0  0  0  0  0  0  0  0  0
    8.9540   12.0020    1.7110 C   0  0  0  0  0  0  0  0  0  0  0  0
    8.6880   20.2010   19.3620 C   0  0  0  0  0  0  0  0  0  0  0  0
    9.0730   11.4430    0.9520 H   0  0  0  0  0  0  0  0  0  0  0  0
    8.5680   20.7600   20.1210 H   0  0  0  0  0  0  0  0  0  0  0  0
    7.7310   12.5910    1.8900 C   0  0  0  0  0  0  0  0  0  0  0  0
    9.9100   19.6120   19.1830 C   0  0  0  0  0  0  0  0  0  0  0  0
    7.0420   12.4620    1.2490 H   0  0  0  0  0  0  0  0  0  0  0  0
   10.6000   19.7410   19.8240 H   0  0  0  0  0  0  0  0  0  0  0  0
    7.5030   13.3840    3.0180 C   0  0  0  0  0  0  0  0  0  0  0  0
   10.1390   18.8190   18.0550 C   0  0  0  0  0  0  0  0  0  0  0  0
    8.5780   13.5610    3.8960 C   0  0  0  0  0  0  0  0  0  0  0  0
    9.0640   18.6420   17.1770 C   0  0  0  0  0  0  0  0  0  0  0  0
    8.4810   14.0850    4.6820 H   0  0  0  0  0  0  0  0  0  0  0  0
    9.1600   18.1180   16.3910 H   0  0  0  0  0  0  0  0  0  0  0  0
    9.7760   12.9620    3.5930 C   0  0  0  0  0  0  0  0  0  0  0  0
    7.8650   19.2410   17.4800 C   0  0  0  0  0  0  0  0  0  0  0  0
   10.5090   13.1240    4.1770 H   0  0  0  0  0  0  0  0  0  0  0  0
    7.1320   19.0790   16.8960 H   0  0  0  0  0  0  0  0  0  0  0  0
   14.5600   16.6840    4.4990 C   0  0  0  0  0  0  0  0  0  0  0  0
    3.0820   15.5190   16.5740 C   0  0  0  0  0  0  0  0  0  0  0  0
   15.4730   16.6940    5.5460 C   0  0  0  0  0  0  0  0  0  0  0  0
    2.1690   15.5090   15.5270 C   0  0  0  0  0  0  0  0  0  0  0  0
   15.7330   15.8770    5.9570 H   0  0  0  0  0  0  0  0  0  0  0  0
    1.9090   16.3260   15.1160 H   0  0  0  0  0  0  0  0  0  0  0  0
   15.9960   17.8790    5.9850 C   0  0  0  0  0  0  0  0  0  0  0  0
    1.6460   14.3240   15.0880 C   0  0  0  0  0  0  0  0  0  0  0  0
   16.6070   17.8490    6.7120 H   0  0  0  0  0  0  0  0  0  0  0  0
   18.5280   16.1260   17.1750 H   0  0  0  0  0  0  0  0  0  0  0  0
   14.8350   19.0770    4.4590 C   0  0  0  0  0  0  0  0  0  0  0  0
    2.8060   13.1260   16.6140 C   0  0  0  0  0  0  0  0  0  0  0  0
   14.6200   19.9060    4.0500 H   0  0  0  0  0  0  0  0  0  0  0  0
    3.0220   12.2970   17.0230 H   0  0  0  0  0  0  0  0  0  0  0  0
   14.2290   17.9340    3.9830 C   0  0  0  0  0  0  0  0  0  0  0  0
    3.4130   14.2690   17.0900 C   0  0  0  0  0  0  0  0  0  0  0  0
   13.5760   18.0010    3.2950 H   0  0  0  0  0  0  0  0  0  0  0  0
    4.0650   14.2020   17.7780 H   0  0  0  0  0  0  0  0  0  0  0  0
    6.3600   26.1910    6.3750 C   0  0  0  0  0  0  0  0  0  0  0  0
   11.2810    6.0120   14.6980 C   0  0  0  0  0  0  0  0  0  0  0  0
    6.0470   25.5310    5.7220 H   0  0  0  0  0  0  0  0  0  0  0  0
   11.5950    6.6720   15.3510 H   0  0  0  0  0  0  0  0  0  0  0  0
    5.8070   26.9980    6.3150 H   0  0  0  0  0  0  0  0  0  0  0  0
   11.8340    5.2050   14.7580 H   0  0  0  0  0  0  0  0  0  0  0  0
    7.2940   26.4210    6.1850 H   0  0  0  0  0  0  0  0  0  0  0  0
   10.3480    5.7820   14.8880 H   0  0  0  0  0  0  0  0  0  0  0  0
    4.3060   26.2160    8.4170 C   0  0  0  0  0  0  0  0  0  0  0  0
   13.3350    5.9870   12.6560 C   0  0  0  0  0  0  0  0  0  0  0  0
    3.6470   25.5580    8.1140 H   0  0  0  0  0  0  0  0  0  0  0  0
   13.9950    6.6450   12.9590 H   0  0  0  0  0  0  0  0  0  0  0  0
    4.1160   26.4660    9.3450 H   0  0  0  0  0  0  0  0  0  0  0  0
   13.5250    5.7370   11.7280 H   0  0  0  0  0  0  0  0  0  0  0  0
    4.2570   27.0130    7.8480 H   0  0  0  0  0  0  0  0  0  0  0  0
   13.3840    5.1900   13.2250 H   0  0  0  0  0  0  0  0  0  0  0  0
    6.9780   27.1890    9.0230 C   0  0  0  0  0  0  0  0  0  0  0  0
   10.6630    5.0140   12.0490 C   0  0  0  0  0  0  0  0  0  0  0  0
    7.0450   27.1420   10.0000 H   0  0  0  0  0  0  0  0  0  0  0  0
   10.5970    5.0610   11.0730 H   0  0  0  0  0  0  0  0  0  0  0  0
    7.8670   27.3440    8.6420 H   0  0  0  0  0  0  0  0  0  0  0  0
    9.7750    4.8590   12.4310 H   0  0  0  0  0  0  0  0  0  0  0  0
    6.3800   27.9220    8.7710 H   0  0  0  0  0  0  0  0  0  0  0  0
   11.2620    4.2810   12.3020 H   0  0  0  0  0  0  0  0  0  0  0  0
    5.6390   22.3490    8.0440 C   0  0  0  0  0  0  0  0  0  0  0  0
   12.0020    9.8540   13.0290 C   0  0  0  0  0  0  0  0  0  0  0  0
    6.2900   22.3060    8.7350 H   0  0  0  0  0  0  0  0  0  0  0  0
   11.3510    9.8970   12.3380 H   0  0  0  0  0  0  0  0  0  0  0  0
    5.0500   21.1770    7.6450 C   0  0  0  0  0  0  0  0  0  0  0  0
   12.5910   11.0260   13.4280 C   0  0  0  0  0  0  0  0  0  0  0  0
    5.2540   20.3600    8.0840 H   0  0  0  0  0  0  0  0  0  0  0  0
   12.3870   11.8430   12.9890 H   0  0  0  0  0  0  0  0  0  0  0  0
    4.1490   21.2060    6.5920 C   0  0  0  0  0  0  0  0  0  0  0  0
   13.4920   10.9970   14.4810 C   0  0  0  0  0  0  0  0  0  0  0  0
    3.8830   22.4490    6.0140 C   0  0  0  0  0  0  0  0  0  0  0  0
   13.7580    9.7540   15.0590 C   0  0  0  0  0  0  0  0  0  0  0  0
    3.2920   22.5150    5.2740 H   0  0  0  0  0  0  0  0  0  0  0  0
   14.3490    9.6880   15.7990 H   0  0  0  0  0  0  0  0  0  0  0  0
    4.4810   23.5820    6.5300 C   0  0  0  0  0  0  0  0  0  0  0  0
   13.1600    8.6210   14.5420 C   0  0  0  0  0  0  0  0  0  0  0  0
    4.2530   24.4250    6.1550 H   0  0  0  0  0  0  0  0  0  0  0  0
   13.3880    7.7780   14.9180 H   0  0  0  0  0  0  0  0  0  0  0  0
   12.1030   23.0540    7.1060 C   0  0  0  0  0  0  0  0  0  0  0  0
    5.5380    9.1490   13.9670 C   0  0  0  0  0  0  0  0  0  0  0  0
   12.4730   22.6230    5.8390 C   0  0  0  0  0  0  0  0  0  0  0  0
    5.1690    9.5800   15.2340 C   0  0  0  0  0  0  0  0  0  0  0  0
   11.8750   22.7160    5.1060 H   0  0  0  0  0  0  0  0  0  0  0  0
    5.7670    9.4870   15.9670 H   0  0  0  0  0  0  0  0  0  0  0  0
   13.7150   22.0590    5.6580 C   0  0  0  0  0  0  0  0  0  0  0  0
    3.9270   10.1440   15.4150 C   0  0  0  0  0  0  0  0  0  0  0  0
   13.9420   21.7690    4.7830 H   0  0  0  0  0  0  0  0  0  0  0  0
    3.7000   10.4340   16.2900 H   0  0  0  0  0  0  0  0  0  0  0  0
   14.2790   22.3810    7.8080 C   0  0  0  0  0  0  0  0  0  0  0  0
    3.3630    9.8220   13.2650 C   0  0  0  0  0  0  0  0  0  0  0  0
   14.9330   22.3570    8.4960 H   0  0  0  0  0  0  0  0  0  0  0  0
    2.7080    9.8460   12.5770 H   0  0  0  0  0  0  0  0  0  0  0  0
   13.0490   22.9190    8.1190 C   0  0  0  0  0  0  0  0  0  0  0  0
    4.5930    9.2840   12.9540 C   0  0  0  0  0  0  0  0  0  0  0  0
   12.8520   23.1950    9.0060 H   0  0  0  0  0  0  0  0  0  0  0  0
    4.7900    9.0080   12.0670 H   0  0  0  0  0  0  0  0  0  0  0  0
    6.1610   13.9660    3.2850 C   0  0  0  0  0  0  0  0  0  0  0  0
   11.4800   18.2370   17.7880 C   0  0  0  0  0  0  0  0  0  0  0  0
    5.0820   13.7570    2.4380 C   0  0  0  0  0  0  0  0  0  0  0  0
   12.5590   18.4460   18.6350 C   0  0  0  0  0  0  0  0  0  0  0  0
    5.1850   13.2460    1.6450 H   0  0  0  0  0  0  0  0  0  0  0  0
   12.4570   18.9570   19.4280 H   0  0  0  0  0  0  0  0  0  0  0  0
    3.8650   14.3010    2.7610 C   0  0  0  0  0  0  0  0  0  0  0  0
   13.7770   17.9020   18.3120 C   0  0  0  0  0  0  0  0  0  0  0  0
    3.1440   14.1370    2.1650 H   0  0  0  0  0  0  0  0  0  0  0  0
   14.4970   18.0660   18.9080 H   0  0  0  0  0  0  0  0  0  0  0  0
    4.6720   15.2900    4.6110 C   0  0  0  0  0  0  0  0  0  0  0  0
   12.9690   16.9130   16.4620 C   0  0  0  0  0  0  0  0  0  0  0  0
    4.5540   15.8660    5.3580 H   0  0  0  0  0  0  0  0  0  0  0  0
   13.0870   16.3370   15.7150 H   0  0  0  0  0  0  0  0  0  0  0  0
    5.9310   14.7680    4.3850 C   0  0  0  0  0  0  0  0  0  0  0  0
   11.7110   17.4350   16.6880 C   0  0  0  0  0  0  0  0  0  0  0  0
    6.6390   14.9580    4.9890 H   0  0  0  0  0  0  0  0  0  0  0  0
   11.0020   17.2450   16.0840 H   0  0  0  0  0  0  0  0  0  0  0  0
   15.2900   19.4670    8.6970 C   0  0  0  0  0  0  0  0  0  0  0  0
    2.3510   12.7360   12.3760 C   0  0  0  0  0  0  0  0  0  0  0  0
   14.5580   19.4020    8.0950 H   0  0  0  0  0  0  0  0  0  0  0  0
    3.0840   12.8010   12.9780 H   0  0  0  0  0  0  0  0  0  0  0  0
   15.1510   18.9420    9.9440 C   0  0  0  0  0  0  0  0  0  0  0  0
    2.4910   13.2610   11.1290 C   0  0  0  0  0  0  0  0  0  0  0  0
   14.3340   18.5300   10.2020 H   0  0  0  0  0  0  0  0  0  0  0  0
    3.3080   13.6730   10.8710 H   0  0  0  0  0  0  0  0  0  0  0  0
   16.2190   19.0160   10.8420 C   0  0  0  0  0  0  0  0  0  0  0  0
    1.4230   13.1870   10.2310 C   0  0  0  0  0  0  0  0  0  0  0  0
   17.3720   19.6440   10.3990 C   0  0  0  0  0  0  0  0  0  0  0  0
    0.2700   12.5590   10.6730 C   0  0  0  0  0  0  0  0  0  0  0  0
   18.1230   19.7270   10.9750 H   0  0  0  0  0  0  0  0  0  0  0  0
   -0.4820   12.4760   10.0970 H   0  0  0  0  0  0  0  0  0  0  0  0
   17.4170   20.1400    9.1310 C   0  0  0  0  0  0  0  0  0  0  0  0
    0.2240   12.0630   11.9420 C   0  0  0  0  0  0  0  0  0  0  0  0
   18.2190   20.5600    8.8420 H   0  0  0  0  0  0  0  0  0  0  0  0
   -0.5770   11.6430   12.2310 H   0  0  0  0  0  0  0  0  0  0  0  0
    3.5610   19.9560    6.0670 C   0  0  0  0  0  0  0  0  0  0  0  0
   14.0800   12.2470   15.0060 C   0  0  0  0  0  0  0  0  0  0  0  0
    2.7290   19.1930    6.8490 C   0  0  0  0  0  0  0  0  0  0  0  0
   14.9130   13.0100   14.2240 C   0  0  0  0  0  0  0  0  0  0  0  0
    2.5440   19.4310    7.7490 H   0  0  0  0  0  0  0  0  0  0  0  0
   15.0970   12.7720   13.3240 H   0  0  0  0  0  0  0  0  0  0  0  0
    2.1710   18.0790    6.2780 C   0  0  0  0  0  0  0  0  0  0  0  0
   15.4710   14.1240   14.7950 C   0  0  0  0  0  0  0  0  0  0  0  0
    1.5440   17.5910    6.8000 H   0  0  0  0  0  0  0  0  0  0  0  0
   16.0970   14.6120   14.2730 H   0  0  0  0  0  0  0  0  0  0  0  0
    3.2340   18.3560    4.3070 C   0  0  0  0  0  0  0  0  0  0  0  0
   14.4070   13.8470   16.7660 C   0  0  0  0  0  0  0  0  0  0  0  0
    3.4200   18.0750    3.4190 H   0  0  0  0  0  0  0  0  0  0  0  0
   14.2210   14.1280   17.6530 H   0  0  0  0  0  0  0  0  0  0  0  0
    3.8110   19.5180    4.7710 C   0  0  0  0  0  0  0  0  0  0  0  0
   13.8310   12.6850   16.3020 C   0  0  0  0  0  0  0  0  0  0  0  0
    4.3800   20.0240    4.2020 H   0  0  0  0  0  0  0  0  0  0  0  0
   13.2620   12.1790   16.8710 H   0  0  0  0  0  0  0  0  0  0  0  0
   17.0070   18.1080   14.3860 C   0  0  0  0  0  0  0  0  0  0  0  0
    0.6350   14.0950    6.6860 C   0  0  0  0  0  0  0  0  0  0  0  0
   17.7190   18.2470   14.9980 H   0  0  0  0  0  0  0  0  0  0  0  0
   -0.0780   13.9560    6.0750 H   0  0  0  0  0  0  0  0  0  0  0  0
   17.1000   18.6810   13.1470 C   0  0  0  0  0  0  0  0  0  0  0  0
    0.5420   13.5220    7.9260 C   0  0  0  0  0  0  0  0  0  0  0  0
   17.8450   19.2340   12.9380 H   0  0  0  0  0  0  0  0  0  0  0  0
   -0.2030   12.9690    8.1350 H   0  0  0  0  0  0  0  0  0  0  0  0
   16.1140   18.4590   12.1970 C   0  0  0  0  0  0  0  0  0  0  0  0
    1.5280   13.7440    8.8760 C   0  0  0  0  0  0  0  0  0  0  0  0
   15.0470   17.6540   12.5850 C   0  0  0  0  0  0  0  0  0  0  0  0
    2.5950   14.5490    8.4880 C   0  0  0  0  0  0  0  0  0  0  0  0
   14.3490   17.4440   11.9750 H   0  0  0  0  0  0  0  0  0  0  0  0
    3.2930   14.7590    9.0980 H   0  0  0  0  0  0  0  0  0  0  0  0
   15.0270   17.1740   13.8580 C   0  0  0  0  0  0  0  0  0  0  0  0
    2.6140   15.0290    7.2150 C   0  0  0  0  0  0  0  0  0  0  0  0
   14.2700   16.6580   14.1120 H   0  0  0  0  0  0  0  0  0  0  0  0
    3.3710   15.5450    6.9610 H   0  0  0  0  0  0  0  0  0  0  0  0
   17.4050   22.5840    6.9670 C   0  0  0  0  0  0  0  0  0  0  0  0
    0.2360    9.6190   14.1060 C   0  0  0  0  0  0  0  0  0  0  0  0
   16.7130   23.2300    7.2210 H   0  0  0  0  0  0  0  0  0  0  0  0
    0.9290    8.9730   13.8520 H   0  0  0  0  0  0  0  0  0  0  0  0
   17.9590   22.3750    7.7470 H   0  0  0  0  0  0  0  0  0  0  0  0
   -0.3180    9.8280   13.3260 H   0  0  0  0  0  0  0  0  0  0  0  0
   17.9680   22.9710    6.2620 H   0  0  0  0  0  0  0  0  0  0  0  0
   -0.3260    9.2320   14.8110 H   0  0  0  0  0  0  0  0  0  0  0  0
   16.7980   21.7950    4.3870 C   0  0  0  0  0  0  0  0  0  0  0  0
    0.8440   10.4080   16.6860 C   0  0  0  0  0  0  0  0  0  0  0  0
   16.4480   21.1900    3.7000 H   0  0  0  0  0  0  0  0  0  0  0  0
    1.1940   11.0130   17.3730 H   0  0  0  0  0  0  0  0  0  0  0  0
   16.3120   22.6440    4.3540 H   0  0  0  0  0  0  0  0  0  0  0  0
    1.3290    9.5590   16.7190 H   0  0  0  0  0  0  0  0  0  0  0  0
   17.7510   21.9550    4.2270 H   0  0  0  0  0  0  0  0  0  0  0  0
   -0.1090   10.2480   16.8460 H   0  0  0  0  0  0  0  0  0  0  0  0
   18.4440   20.1270    5.9850 C   0  0  0  0  0  0  0  0  0  0  0  0
   -0.8030   12.0760   15.0880 C   0  0  0  0  0  0  0  0  0  0  0  0
   18.3670   19.2190    5.6210 H   0  0  0  0  0  0  0  0  0  0  0  0
   -0.7250   12.9840   15.4520 H   0  0  0  0  0  0  0  0  0  0  0  0
   -0.2810   16.4910    4.5500 C   0  0  0  0  0  0  0  0  0  0  0  0
   17.9220   15.7120   16.5230 C   0  0  0  0  0  0  0  0  0  0  0  0
   -0.2730   17.4610    4.4190 H   0  0  0  0  0  0  0  0  0  0  0  0
   17.9150   14.7420   16.6540 H   0  0  0  0  0  0  0  0  0  0  0  0
    1.4950   16.5200    2.3730 C   0  0  0  0  0  0  0  0  0  0  0  0
   16.1470   15.6830   18.7000 C   0  0  0  0  0  0  0  0  0  0  0  0
    2.3270   16.3350    1.8900 H   0  0  0  0  0  0  0  0  0  0  0  0
   15.3150   15.8680   19.1830 H   0  0  0  0  0  0  0  0  0  0  0  0
    0.7430   16.1070    1.9020 H   0  0  0  0  0  0  0  0  0  0  0  0
   16.8990   16.0960   19.1710 H   0  0  0  0  0  0  0  0  0  0  0  0
    1.3560   17.4900    2.4230 H   0  0  0  0  0  0  0  0  0  0  0  0
   16.2860   14.7130   18.6500 H   0  0  0  0  0  0  0  0  0  0  0  0
    0.7910   13.9760    3.4480 C   0  0  0  0  0  0  0  0  0  0  0  0
   16.8510   18.2270   17.6250 C   0  0  0  0  0  0  0  0  0  0  0  0
    1.5140   13.3640    3.1950 H   0  0  0  0  0  0  0  0  0  0  0  0
   16.1280   18.8390   17.8780 H   0  0  0  0  0  0  0  0  0  0  0  0
    0.2120   13.5440    4.1090 H   0  0  0  0  0  0  0  0  0  0  0  0
   17.4300   18.6590   16.9640 H   0  0  0  0  0  0  0  0  0  0  0  0
    0.2650   14.2050    2.6520 H   0  0  0  0  0  0  0  0  0  0  0  0
   17.3760   17.9980   18.4210 H   0  0  0  0  0  0  0  0  0  0  0  0
    9.5646    7.2993   10.3881 H   0  0  0  0  0  0  0  0  0  0  0  0
   11.6200    7.6060   10.6710 N   0  0  0  0  0  4  0  0  0  0  0  0
    5.8310   20.9200   21.4340 H   0  0  0  0  0  0  0  0  0  0  0  0
   11.6510    8.6210    8.1030 C   0  0  0  0  0  0  0  0  0  0  0  0
    0.9596   14.3580   14.2679 H   0  0  0  0  0  0  0  0  0  0  0  0
    7.1570   24.0750   12.4120 C   0  0  0  0  0  0  0  0  0  0  0  0
   18.2280   15.9190   15.6160 H   0  0  0  0  0  0  0  0  0  0  0  0
   13.4784    8.2140   10.9483 H   0  0  0  0  0  0  0  0  0  0  0  0
   -0.5870   16.2840    5.4570 H   0  0  0  0  0  0  0  0  0  0  0  0
   12.6420    8.1510   10.2840 C   0  0  0  0  0  0  0  0  0  0  0  0
   -0.8860   16.0770    3.8980 H   0  0  0  0  0  0  0  0  0  0  0  0
    8.0783   24.9799   10.7606 H   0  0  0  0  0  0  0  0  0  0  0  0
   -1.2840   12.1080   14.2350 H   0  0  0  0  0  0  0  0  0  0  0  0
    3.9595   23.0858   12.3863 H   0  0  0  0  0  0  0  0  0  0  0  0
   18.9260   20.0950    6.8380 H   0  0  0  0  0  0  0  0  0  0  0  0
   10.4790    7.6450    9.9530 C   0  0  0  0  0  0  0  0  0  0  0  0
   -1.2930   11.5120   15.7200 H   0  0  0  0  0  0  0  0  0  0  0  0
   11.8100   11.2830   -0.3610 H   0  0  0  0  0  0  0  0  0  0  0  0
   18.9350   20.6910    5.3520 H   0  0  0  0  0  0  0  0  0  0  0  0
    4.1237   24.0741   10.1754 H   0  0  0  0  0  0  0  0  0  0  0  0
    6.1290   24.5450   10.2810 N   0  0  0  0  0  4  0  0  0  0  0  0
    7.1630   24.5580   11.1200 C   0  0  0  0  0  0  0  0  0  0  0  0
    5.9810   23.5240   12.9180 C   0  0  0  0  0  0  0  0  0  0  0  0
   10.4840    8.1280    8.6610 C   0  0  0  0  0  0  0  0  0  0  0  0
    4.8870   23.5110   12.0640 C   0  0  0  0  0  0  0  0  0  0  0  0
   12.7540    8.6920    9.0090 C   0  0  0  0  0  0  0  0  0  0  0  0
    8.0396   24.1225   13.0151 H   0  0  0  0  0  0  0  0  0  0  0  0
   13.6662    9.1618    8.7055 H   0  0  0  0  0  0  0  0  0  0  0  0
    5.0000   24.0520   10.7890 C   0  0  0  0  0  0  0  0  0  0  0  0
    9.5810    8.1216    8.0870 H   0  0  0  0  0  0  0  0  0  0  0  0
  1 93  9  0  0  0  0
  1 85  9  0  0  0  0
  1 99  9  0  0  0  0
  1 15  9  0  0  0  0
  1 11  9  0  0  0  0
  1 10  9  0  0  0  0
  2100  9  0  0  0  0
  2 86  9  0  0  0  0
  2 16  9  0  0  0  0
  2 94  9  0  0  0  0
  2  9  9  0  0  0  0
  2 12  9  0  0  0  0
  3143  9  0  0  0  0
  3 19  9  0  0  0  0
  3 13  9  0  0  0  0
  3151  9  0  0  0  0
  3159  9  0  0  0  0
  3335  9  0  0  0  0
  4160  9  0  0  0  0
  4152  9  0  0  0  0
  4 14  9  0  0  0  0
  4 20  9  0  0  0  0
  4144  9  0  0  0  0
  4316  9  0  0  0  0
  5283  9  0  0  0  0
  5 17  9  0  0  0  0
  5291  9  0  0  0  0
  5 21  9  0  0  0  0
  5275  9  0  0  0  0
  5 25  9  0  0  0  0
  6 26  9  0  0  0  0
  6276  9  0  0  0  0
  6 22  9  0  0  0  0
  6292  9  0  0  0  0
  6 18  9  0  0  0  0
  6284  9  0  0  0  0
  7299  9  0  0  0  0
  7307  9  0  0  0  0
  7 23  9  0  0  0  0
  7295  9  0  0  0  0
  7 27  9  0  0  0  0
  7 30  9  0  0  0  0
  8 29  9  0  0  0  0
  8 28  9  0  0  0  0
  8296  9  0  0  0  0
  8 24  9  0  0  0  0
  8308  9  0  0  0  0
  8300  9  0  0  0  0
  9 41  1  0  0  0  0
  9 37  2  0  0  0  0
 10 38  1  0  0  0  0
 10 42  1  0  0  0  0
 11 63  1  0  0  0  0
 11 49  1  0  0  0  0
 12 50  1  0  0  0  0
 12 64  1  0  0  0  0
 13 67  1  0  0  0  0
 13 81  1  0  0  0  0
 14 82  1  0  0  0  0
 14 68  1  0  0  0  0
 15107  1  0  0  0  0
 15121  1  0  0  0  0
 16108  1  0  0  0  0
 16122  1  0  0  0  0
 17135  1  0  0  0  0
 17131  1  0  0  0  0
 18132  2  0  0  0  0
 18136  1  0  0  0  0
 19181  1  0  0  0  0
 19167  1  0  0  0  0
 20168  1  0  0  0  0
 20182  1  0  0  0  0
 21191  1  0  0  0  0
 21195  1  0  0  0  0
 22196  1  0  0  0  0
 22192  1  0  0  0  0
 23209  1  0  0  0  0
 23213  1  0  0  0  0
 24214  1  0  0  0  0
 24210  1  0  0  0  0
 25221  1  0  0  0  0
 25235  1  0  0  0  0
 26236  1  0  0  0  0
 26222  1  0  0  0  0
 27249  1  0  0  0  0
 27245  1  0  0  0  0
 28246  1  0  0  0  0
 28250  1  0  0  0  0
 29271  1  0  0  0  0
 29257  1  0  0  0  0
 30258  1  0  0  0  0
 30272  1  0  0  0  0
 31337  1  0  0  0  0
 31 45  1  0  0  0  0
 31 33  2  0  0  0  0
 32 34  2  0  0  0  0
 32 46  1  0  0  0  0
 32318  1  0  0  0  0
 33 35  1  0  0  0  0
 33 37  1  0  0  0  0
 34 38  1  0  0  0  0
 34 36  1  0  0  0  0
 37 39  1  0  0  0  0
 38 40  1  0  0  0  0
 41 45  2  0  0  0  0
 41 43  1  0  0  0  0
 42 44  1  0  0  0  0
 42 46  2  0  0  0  0
 45 47  1  0  0  0  0
 46 48  1  0  0  0  0
 49 51  1  0  0  0  0
 49 53  1  0  0  0  0
 50 54  1  0  0  0  0
 50 52  1  0  0  0  0
 53 57  2  0  0  0  0
 53 55  1  0  0  0  0
 54 56  1  0  0  0  0
 54 58  2  0  0  0  0
 57 59  1  0  0  0  0
 57125  1  0  0  0  0
 58126  1  0  0  0  0
 58 60  1  0  0  0  0
 59 63  2  0  0  0  0
 59 61  1  0  0  0  0
 60 62  1  0  0  0  0
 60 64  2  0  0  0  0
 63 65  1  0  0  0  0
 64 66  1  0  0  0  0
 67 69  1  0  0  0  0
 67 71  1  0  0  0  0
 68 72  1  0  0  0  0
 68 70  1  0  0  0  0
 71 73  1  0  0  0  0
 71 75  2  0  0  0  0
 72 76  2  0  0  0  0
 72 74  1  0  0  0  0
 75185  1  0  0  0  0
 75 77  1  0  0  0  0
 76 78  1  0  0  0  0
 76186  1  0  0  0  0
 77 81  2  0  0  0  0
 77 79  1  0  0  0  0
 78 80  1  0  0  0  0
 78 82  2  0  0  0  0
 81 83  1  0  0  0  0
 82 84  1  0  0  0  0
 85 87  1  0  0  0  0
 85 91  1  0  0  0  0
 85 89  1  0  0  0  0
 86 92  1  0  0  0  0
 86 88  1  0  0  0  0
 86 90  1  0  0  0  0
 93332  1  0  0  0  0
 93 95  1  0  0  0  0
 93 97  1  0  0  0  0
 94 98  1  0  0  0  0
 94 96  1  0  0  0  0
 94317  1  0  0  0  0
 99101  1  0  0  0  0
 99103  1  0  0  0  0
 99105  1  0  0  0  0
100102  1  0  0  0  0
100106  1  0  0  0  0
100104  1  0  0  0  0
107109  1  0  0  0  0
107111  1  0  0  0  0
108112  1  0  0  0  0
108110  1  0  0  0  0
111113  1  0  0  0  0
111115  2  0  0  0  0
112114  1  0  0  0  0
112116  2  0  0  0  0
115203  1  0  0  0  0
115117  1  0  0  0  0
116118  1  0  0  0  0
116204  1  0  0  0  0
117121  2  0  0  0  0
117119  1  0  0  0  0
118120  1  0  0  0  0
118122  2  0  0  0  0
121123  1  0  0  0  0
122124  1  0  0  0  0
125139  1  0  0  0  0
125127  2  0  0  0  0
126128  2  0  0  0  0
126140  1  0  0  0  0
127129  1  0  0  0  0
127131  1  0  0  0  0
128132  1  0  0  0  0
128130  1  0  0  0  0
131133  1  0  0  0  0
132319  1  0  0  0  0
135139  2  0  0  0  0
135137  1  0  0  0  0
136138  1  0  0  0  0
136140  2  0  0  0  0
139141  1  0  0  0  0
140142  1  0  0  0  0
143145  1  0  0  0  0
143149  1  0  0  0  0
143147  1  0  0  0  0
144148  1  0  0  0  0
144150  1  0  0  0  0
144146  1  0  0  0  0
151157  1  0  0  0  0
151153  1  0  0  0  0
151155  1  0  0  0  0
152156  1  0  0  0  0
152154  1  0  0  0  0
152158  1  0  0  0  0
159163  1  0  0  0  0
159165  1  0  0  0  0
159161  1  0  0  0  0
160162  1  0  0  0  0
160166  1  0  0  0  0
160164  1  0  0  0  0
167171  1  0  0  0  0
167169  1  0  0  0  0
168170  1  0  0  0  0
168172  1  0  0  0  0
171175  2  0  0  0  0
171173  1  0  0  0  0
172174  1  0  0  0  0
172176  2  0  0  0  0
175177  1  0  0  0  0
175239  1  0  0  0  0
176240  1  0  0  0  0
176178  1  0  0  0  0
177179  1  0  0  0  0
177181  2  0  0  0  0
178182  2  0  0  0  0
178180  1  0  0  0  0
181183  1  0  0  0  0
182184  1  0  0  0  0
185187  2  0  0  0  0
185199  1  0  0  0  0
186200  1  0  0  0  0
186188  2  0  0  0  0
187189  1  0  0  0  0
187191  1  0  0  0  0
188192  1  0  0  0  0
188190  1  0  0  0  0
191193  1  0  0  0  0
192194  1  0  0  0  0
195199  2  0  0  0  0
195197  1  0  0  0  0
196198  1  0  0  0  0
196200  2  0  0  0  0
199201  1  0  0  0  0
200202  1  0  0  0  0
203205  2  0  0  0  0
203217  1  0  0  0  0
204218  1  0  0  0  0
204206  2  0  0  0  0
205207  1  0  0  0  0
205209  1  0  0  0  0
206208  1  0  0  0  0
206210  1  0  0  0  0
209211  1  0  0  0  0
210212  1  0  0  0  0
213217  2  0  0  0  0
213215  1  0  0  0  0
214216  1  0  0  0  0
214218  2  0  0  0  0
217219  1  0  0  0  0
218220  1  0  0  0  0
221223  1  0  0  0  0
221225  1  0  0  0  0
222226  1  0  0  0  0
222224  1  0  0  0  0
225227  1  0  0  0  0
225229  2  0  0  0  0
226230  2  0  0  0  0
226228  1  0  0  0  0
229231  1  0  0  0  0
229265  1  0  0  0  0
230266  1  0  0  0  0
230232  1  0  0  0  0
231235  2  0  0  0  0
231233  1  0  0  0  0
232234  1  0  0  0  0
232236  2  0  0  0  0
235237  1  0  0  0  0
236238  1  0  0  0  0
239253  1  0  0  0  0
239241  2  0  0  0  0
240242  2  0  0  0  0
240254  1  0  0  0  0
241245  1  0  0  0  0
241243  1  0  0  0  0
242244  1  0  0  0  0
242246  1  0  0  0  0
245247  1  0  0  0  0
246248  1  0  0  0  0
249251  1  0  0  0  0
249253  2  0  0  0  0
250254  2  0  0  0  0
250252  1  0  0  0  0
253255  1  0  0  0  0
254256  1  0  0  0  0
257261  1  0  0  0  0
257259  1  0  0  0  0
258260  1  0  0  0  0
258262  1  0  0  0  0
261265  2  0  0  0  0
261263  1  0  0  0  0
262264  1  0  0  0  0
262266  2  0  0  0  0
265267  1  0  0  0  0
266268  1  0  0  0  0
267269  1  0  0  0  0
267271  2  0  0  0  0
268272  2  0  0  0  0
268270  1  0  0  0  0
271273  1  0  0  0  0
272274  1  0  0  0  0
275281  1  0  0  0  0
275277  1  0  0  0  0
275279  1  0  0  0  0
276280  1  0  0  0  0
276278  1  0  0  0  0
276282  1  0  0  0  0
283285  1  0  0  0  0
283289  1  0  0  0  0
283287  1  0  0  0  0
284288  1  0  0  0  0
284290  1  0  0  0  0
284286  1  0  0  0  0
291333  1  0  0  0  0
291293  1  0  0  0  0
291329  1  0  0  0  0
292327  1  0  0  0  0
292294  1  0  0  0  0
292331  1  0  0  0  0
295325  1  0  0  0  0
295297  1  0  0  0  0
295323  1  0  0  0  0
296321  1  0  0  0  0
296298  1  0  0  0  0
296134  1  0  0  0  0
299301  1  0  0  0  0
299303  1  0  0  0  0
299305  1  0  0  0  0
300302  1  0  0  0  0
300306  1  0  0  0  0
300304  1  0  0  0  0
307313  1  0  0  0  0
307309  1  0  0  0  0
307311  1  0  0  0  0
308312  1  0  0  0  0
308310  1  0  0  0  0
308314  1  0  0  0  0
316330  1  0  0  0  0
316324  2  0  0  0  0
318338  1  0  0  0  0
318340  2  0  0  0  0
320341  1  0  0  0  0
324322  1  0  0  0  0
330315  1  0  0  0  0
330338  2  0  0  0  0
335336  1  0  0  0  0
335343  2  0  0  0  0
336326  1  0  0  0  0
336320  2  0  0  0  0
337339  2  0  0  0  0
337320  1  0  0  0  0
338344  1  0  0  0  0
339343  1  0  0  0  0
339328  1  0  0  0  0
340324  1  0  0  0  0
340342  1  0  0  0  0
343334  1  0  0  0  0
M  END
$$$$
