
     RDKit          3D

  0  0  0  0  0  0  0  0  0  0999 V3000
M  V30 BEGIN CTAB
M  V30 COUNTS 20 21 0 0 0
M  V30 BEGIN ATOM
M  V30 1 H -9.3979 -4.4588 1.6946 0
M  V30 2 H -8.8989 -2.1458 -4.4614 0
M  V30 3 C -8.2789 -2.5798 -2.6104 0
M  V30 4 C -6.4699 -3.3658 1.8396 0
M  V30 5 H -9.0239 -3.1328 -2.4014 0
M  V30 6 H -5.7369 -3.3008 2.4416 0
M  V30 7 C -7.2929 -2.3578 -1.6604 0
M  V30 8 C -6.3299 -2.8408 0.5926 0
M  V30 9 C -6.2259 -1.5528 -2.0484 0
M  V30 10 N -7.1469 -1.2628 -4.2504 0
M  V30 11 H -5.5129 -2.4288 0.3346 0
M  V30 12 H -5.5279 -1.3428 -1.4384 0
M  V30 13 C -7.3979 -2.9148 -0.3054 0
M  V30 14 C -6.2069 -1.0728 -3.3214 0
M  V30 15 H -5.4499 -0.5568 -3.5754 0
M  V30 16 C -8.5509 -3.5428 0.1366 0
M  V30 17 N -7.5849 -3.9648 2.2616 0
M  V30 18 H -9.3029 -3.6258 -0.4394 0
M  V30 19 C -8.5969 -4.0388 1.4056 0
M  V30 20 C -8.1859 -2.0068 -3.8504 0
M  V30 END ATOM
M  V30 BEGIN BOND
M  V30 1 1 17 19
M  V30 2 1 17 4
M  V30 3 1 10 20
M  V30 4 1 10 14
M  V30 5 1 4 8
M  V30 6 1 4 6
M  V30 7 2 8 13
M  V30 8 1 8 11
M  V30 9 1 13 7
M  V30 10 1 13 16
M  V30 11 1 16 18
M  V30 12 2 16 19
M  V30 13 1 19 1
M  V30 14 1 20 2
M  V30 15 1 20 3
M  V30 16 1 3 5
M  V30 17 2 3 7
M  V30 18 1 7 9
M  V30 19 2 9 14
M  V30 20 1 9 12
M  V30 21 1 14 15
M  V30 END BOND
M  V30 END CTAB
M  END

$$$$
