
     RDKit          3D

  0  0  0  0  0  0  0  0  0  0999 V3000
M  V30 BEGIN CTAB
M  V30 COUNTS 20 21 0 0 0
M  V30 BEGIN ATOM
M  V30 1 C -3.8209 7.9502 0.2526 0
M  V30 2 H -0.8809 6.6572 4.0556 0
M  V30 3 C -1.7349 6.5502 4.4546 0
M  V30 4 H -0.7426 8.8781 0.2242 0
M  V30 5 N -3.0449 5.8152 6.3406 0
M  V30 6 H -4.8614 6.9840 1.8499 0
M  V30 7 C -4.1279 6.2282 5.6956 0
M  V30 8 C -4.1239 6.7882 4.4486 0
M  V30 9 H -4.9669 6.1242 6.1306 0
M  V30 10 H -4.6972 7.9723 -0.3610 0
M  V30 11 N -2.6919 8.4432 -0.2554 0
M  V30 12 C -2.8949 6.9332 3.7906 0
M  V30 13 C -1.6579 8.4562 0.5836 0
M  V30 14 C -2.8399 7.4222 2.3816 0
M  V30 15 H -0.9838 5.7177 6.2432 0
M  V30 16 C -3.9339 7.4092 1.5276 0
M  V30 17 C -1.8739 6.0052 5.7236 0
M  V30 18 H -0.7813 8.0207 2.4787 0
M  V30 19 C -1.6639 7.9732 1.8756 0
M  V30 20 H -4.9329 7.0712 4.0396 0
M  V30 END ATOM
M  V30 BEGIN BOND
M  V30 1 1 5 7
M  V30 2 2 5 17
M  V30 3 1 12 14
M  V30 4 1 12 8
M  V30 5 2 12 3
M  V30 6 1 3 2
M  V30 7 1 3 17
M  V30 8 1 17 15
M  V30 9 2 7 8
M  V30 10 1 7 9
M  V30 11 1 8 20
M  V30 12 1 19 18
M  V30 13 1 11 13
M  V30 14 2 11 1
M  V30 15 1 13 4
M  V30 16 2 13 19
M  V30 17 2 14 16
M  V30 18 1 14 19
M  V30 19 1 16 1
M  V30 20 1 16 6
M  V30 21 1 1 10
M  V30 END BOND
M  V30 END CTAB
M  END

$$$$
