
     RDKit          3D

  0  0  0  0  0  0  0  0  0  0999 V3000
M  V30 BEGIN CTAB
M  V30 COUNTS 13 12 0 0 0
M  V30 BEGIN ATOM
M  V30 1 H -10.1049 -3.9938 3.6986 0
M  V30 2 H -9.1389 -6.2738 2.7896 0
M  V30 3 Pt -7.7249 -4.8128 4.2466 0
M  V30 4 H -7.6269 -5.0888 6.8366 0
M  V30 5 C -9.6239 -4.0258 4.5516 0
M  V30 6 C -8.5849 -6.4828 3.5696 0
M  V30 7 H -9.1469 -6.8698 4.2746 0
M  V30 8 H -7.4919 -6.5428 6.1826 0
M  V30 9 H -9.5459 -3.1178 4.9156 0
M  V30 10 H -7.8919 -7.1288 3.3156 0
M  V30 11 H -10.1139 -4.5898 5.1836 0
M  V30 12 C -7.9769 -5.6938 6.1496 0
M  V30 13 H -8.9299 -5.8538 6.3096 0
M  V30 END ATOM
M  V30 BEGIN BOND
M  V30 1 9 6 3
M  V30 2 9 5 3
M  V30 3 9 12 3
M  V30 4 1 6 2
M  V30 5 1 6 10
M  V30 6 1 6 7
M  V30 7 1 12 8
M  V30 8 1 12 13
M  V30 9 1 12 4
M  V30 10 1 5 1
M  V30 11 1 5 9
M  V30 12 1 5 11
M  V30 END BOND
M  V30 END CTAB
M  END

$$$$
