
     RDKit          3D

  0  0  0  0  0  0  0  0  0  0999 V3000
M  V30 BEGIN CTAB
M  V30 COUNTS 13 12 0 0 0
M  V30 BEGIN ATOM
M  V30 1 C 9.1011 -0.3898 5.9866 0
M  V30 2 H 7.4651 -1.3888 8.1136 0
M  V30 3 H 8.6091 2.5572 6.4276 0
M  V30 4 Pt 7.1991 0.3532 6.2556 0
M  V30 5 H 6.4941 -0.2338 8.6466 0
M  V30 6 C 8.0301 2.1252 7.0886 0
M  V30 7 H 9.0941 -1.3598 6.1176 0
M  V30 8 C 7.3261 -0.4188 8.1636 0
M  V30 9 H 8.5551 1.8962 7.8846 0
M  V30 10 H 8.0781 -0.0058 8.6346 0
M  V30 11 H 9.7071 0.0242 6.6386 0
M  V30 12 H 7.3071 2.7372 7.3416 0
M  V30 13 H 9.4071 -0.1828 5.0796 0
M  V30 END ATOM
M  V30 BEGIN BOND
M  V30 1 9 1 4
M  V30 2 9 6 4
M  V30 3 9 8 4
M  V30 4 1 1 13
M  V30 5 1 1 7
M  V30 6 1 1 11
M  V30 7 1 8 5
M  V30 8 1 8 2
M  V30 9 1 8 10
M  V30 10 1 6 3
M  V30 11 1 6 12
M  V30 12 1 6 9
M  V30 END BOND
M  V30 END CTAB
M  END

$$$$
