
     RDKit          3D

  0  0  0  0  0  0  0  0  0  0999 V3000
M  V30 BEGIN CTAB
M  V30 COUNTS 13 12 0 0 0
M  V30 BEGIN ATOM
M  V30 1 H 1.5271 -10.3198 4.3516 0
M  V30 2 H 0.9541 -11.2428 1.8946 0
M  V30 3 H 3.0131 -10.8968 4.2216 0
M  V30 4 H 4.5631 -10.9118 2.6886 0
M  V30 5 C 4.5141 -10.1148 2.1196 0
M  V30 6 H 1.7761 -11.0408 0.5366 0
M  V30 7 H 2.7741 -9.4298 4.8146 0
M  V30 8 C 1.8421 -11.0878 1.5126 0
M  V30 9 H 4.7041 -10.3648 1.1916 0
M  V30 10 Pt 2.6041 -9.2908 2.2406 0
M  V30 11 C 2.4601 -10.0898 4.1616 0
M  V30 12 H 2.4411 -11.8208 1.7656 0
M  V30 13 H 5.1741 -9.4568 2.4226 0
M  V30 END ATOM
M  V30 BEGIN BOND
M  V30 1 9 8 10
M  V30 2 9 5 10
M  V30 3 9 11 10
M  V30 4 1 11 3
M  V30 5 1 11 1
M  V30 6 1 11 7
M  V30 7 1 5 9
M  V30 8 1 5 13
M  V30 9 1 5 4
M  V30 10 1 8 6
M  V30 11 1 8 12
M  V30 12 1 8 2
M  V30 END BOND
M  V30 END CTAB
M  END

$$$$
