
     RDKit          3D

  0  0  0  0  0  0  0  0  0  0999 V3000
M  V30 BEGIN CTAB
M  V30 COUNTS 392 420 0 0 0
M  V30 BEGIN ATOM
M  V30 1 C 5.3387 -7.3578 -12.0692 0
M  V30 2 H 3.7027 -8.3568 -9.9422 0
M  V30 3 H 4.8467 -4.4108 -11.6282 0
M  V30 4 Pt 3.4367 -6.6148 -11.8002 0
M  V30 5 H 2.7317 -7.2018 -9.4092 0
M  V30 6 C 4.2677 -4.8428 -10.9672 0
M  V30 7 H 5.3317 -8.3278 -11.9382 0
M  V30 8 C 3.5637 -7.3868 -9.8922 0
M  V30 9 H 4.7927 -5.0718 -10.1712 0
M  V30 10 H 4.3157 -6.9738 -9.4212 0
M  V30 11 H 5.9447 -6.9438 -11.4172 0
M  V30 12 H 3.5447 -4.2308 -10.7142 0
M  V30 13 H 5.6447 -7.1508 -12.9762 0
M  V30 14 C -2.8689 5.7262 10.3162 0
M  V30 15 H -4.5049 4.7272 12.4432 0
M  V30 16 H -3.3609 8.6732 10.7572 0
M  V30 17 Pt -4.7709 6.4692 10.5852 0
M  V30 18 H -5.4759 5.8822 12.9762 0
M  V30 19 C -3.9399 8.2412 11.4182 0
M  V30 20 H -2.8759 4.7562 10.4472 0
M  V30 21 C -4.6439 5.6972 12.4932 0
M  V30 22 H -3.4149 8.0122 12.2142 0
M  V30 23 H -3.8919 6.1102 12.9642 0
M  V30 24 H -2.2629 6.1402 10.9682 0
M  V30 25 H -4.6629 8.8532 11.6712 0
M  V30 26 H -2.5629 5.9332 9.4092 0
M  V30 27 C -2.3594 11.9295 -4.0258 0
M  V30 28 H -3.9954 10.9305 -1.8988 0
M  V30 29 H -2.8514 14.8765 -3.5848 0
M  V30 30 Pt -4.2614 12.6725 -3.7568 0
M  V30 31 H -4.9664 12.0855 -1.3658 0
M  V30 32 C -3.4304 14.4445 -2.9238 0
M  V30 33 H -2.3664 10.9595 -3.8948 0
M  V30 34 C -4.1344 11.9005 -1.8488 0
M  V30 35 H -2.9054 14.2155 -2.1278 0
M  V30 36 H -3.3824 12.3135 -1.3778 0
M  V30 37 H -1.7534 12.3435 -3.3738 0
M  V30 38 H -4.1534 15.0565 -2.6708 0
M  V30 39 H -2.0534 12.1365 -4.9328 0
M  V30 40 C 4.8019 -13.4880 2.3102 0
M  V30 41 H 3.1659 -14.4870 4.4372 0
M  V30 42 H 4.3099 -10.5410 2.7512 0
M  V30 43 Pt 2.8999 -12.7450 2.5792 0
M  V30 44 H 2.1949 -13.3320 4.9702 0
M  V30 45 C 3.7309 -10.9730 3.4122 0
M  V30 46 H 4.7949 -14.4580 2.4412 0
M  V30 47 C 3.0269 -13.5170 4.4872 0
M  V30 48 H 4.2559 -11.2020 4.2082 0
M  V30 49 H 3.7789 -13.1040 4.9582 0
M  V30 50 H 5.4079 -13.0740 2.9622 0
M  V30 51 H 3.0079 -10.3610 3.6652 0
M  V30 52 H 5.1079 -13.2810 1.4032 0
M  V30 53 C 11.6934 5.6738 -6.5523 0
M  V30 54 H 10.0574 4.6748 -4.4253 0
M  V30 55 H 11.2014 8.6208 -6.1113 0
M  V30 56 Pt 9.7914 6.4168 -6.2833 0
M  V30 57 H 9.0864 5.8298 -3.8923 0
M  V30 58 C 10.6224 8.1888 -5.4503 0
M  V30 59 H 11.6864 4.7038 -6.4213 0
M  V30 60 C 9.9184 5.6448 -4.3753 0
M  V30 61 H 11.1474 7.9598 -4.6543 0
M  V30 62 H 10.6704 6.0578 -3.9043 0
M  V30 63 H 12.2994 6.0878 -5.9003 0
M  V30 64 H 9.8994 8.8008 -5.1973 0
M  V30 65 H 11.9994 5.8808 -7.4593 0
M  V30 66 C -9.2834 -7.3052 4.8704 0
M  V30 67 H -10.9194 -8.3042 6.9974 0
M  V30 68 H -9.7754 -4.3582 5.3114 0
M  V30 69 Pt -11.1854 -6.5622 5.1394 0
M  V30 70 H -11.8904 -7.1492 7.5304 0
M  V30 71 C -10.3544 -4.7902 5.9724 0
M  V30 72 H -9.2904 -8.2752 5.0014 0
M  V30 73 C -11.0584 -7.3342 7.0474 0
M  V30 74 H -9.8294 -5.0192 6.7684 0
M  V30 75 H -10.3064 -6.9212 7.5184 0
M  V30 76 H -8.6774 -6.8912 5.5224 0
M  V30 77 H -11.0774 -4.1782 6.2254 0
M  V30 78 H -8.9774 -7.0982 3.9634 0
M  V30 79 C -9.0535 -1.3551 -9.7884 0
M  V30 80 H -10.6895 -2.3541 -7.6614 0
M  V30 81 H -9.5455 1.5919 -9.3474 0
M  V30 82 Pt -10.9555 -0.6121 -9.5194 0
M  V30 83 H -11.6605 -1.1991 -7.1284 0
M  V30 84 C -10.1245 1.1599 -8.6864 0
M  V30 85 H -9.0605 -2.3251 -9.6574 0
M  V30 86 C -10.8285 -1.3841 -7.6114 0
M  V30 87 H -9.5995 0.9309 -7.8904 0
M  V30 88 H -10.0765 -0.9711 -7.1404 0
M  V30 89 H -8.4475 -0.9411 -9.1364 0
M  V30 90 H -10.8475 1.7719 -8.4334 0
M  V30 91 H -8.7475 -1.1481 -10.6954 0
M  V30 92 C 11.3823 -0.2558 7.9742 0
M  V30 93 H 9.7463 -1.2548 10.1012 0
M  V30 94 H 10.8903 2.6912 8.4152 0
M  V30 95 Pt 9.4803 0.4872 8.2432 0
M  V30 96 H 8.7753 -0.0998 10.6342 0
M  V30 97 C 10.3113 2.2592 9.0762 0
M  V30 98 H 11.3753 -1.2258 8.1052 0
M  V30 99 C 9.6073 -0.2848 10.1512 0
M  V30 100 H 10.8363 2.0302 9.8722 0
M  V30 101 H 10.3593 0.1282 10.6222 0
M  V30 102 H 11.9883 0.1582 8.6262 0
M  V30 103 H 9.5883 2.8712 9.3292 0
M  V30 104 H 11.6883 -0.0488 7.0672 0
M  V30 105 C -3.0883 9.0417 9.7102 0
M  V30 106 H -5.8792 9.5615 8.7562 0
M  V30 107 H -1.9617 9.6759 7.9530 0
M  V30 108 H -2.4501 9.5988 10.4296 0
M  V30 109 N -4.4663 8.9616 10.2264 0
M  V30 110 C -5.3892 9.9649 9.6682 0
M  V30 111 C -3.5551 11.1110 8.3448 0
M  V30 112 C -3.0088 9.6806 8.3223 0
M  V30 113 H -4.2920 11.7303 10.2916 0
M  V30 114 C -4.6952 11.2942 9.3535 0
M  V30 115 C -4.0098 11.4860 7.0034 0
M  V30 116 C -4.3841 11.7945 5.8998 0
M  V30 117 C -4.8227 12.1549 4.6077 0
M  V30 118 C -5.1966 12.4626 3.5037 0
M  V30 119 H -6.0463 10.9461 1.1663 0
M  V30 120 C -5.2695 11.7396 1.1647 0
M  V30 121 N -4.0280 13.3185 -0.3110 0
M  V30 122 C -3.8159 14.0803 0.9326 0
M  V30 123 C -5.0863 14.2106 1.7806 0
M  V30 124 H -3.0061 13.6077 1.5284 0
M  V30 125 C -5.6508 12.8366 2.1617 0
M  V30 126 H -4.9105 11.5097 -0.9665 0
M  V30 127 C -5.1099 12.3228 -0.2380 0
M  V30 128 H -5.8515 14.7795 1.2115 0
M  V30 129 C 5.8289 -8.2496 -8.9289 0
M  V30 130 H 3.7132 -10.3674 -8.8397 0
M  V30 131 H 6.5023 -8.2975 -6.8543 0
M  V30 132 H 6.8552 -8.2645 -9.3548 0
M  V30 133 N 4.8974 -8.9217 -9.8521 0
M  V30 134 C 4.5988 -10.3228 -9.5092 0
M  V30 135 C 6.2367 -10.3381 -7.5738 0
M  V30 136 C 5.8249 -8.8639 -7.5276 0
M  V30 137 H 6.6359 -11.0674 -9.5802 0
M  V30 138 C 5.7893 -11.0384 -8.8623 0
M  V30 139 C 5.6907 -11.0391 -6.4089 0
M  V30 140 C 5.2412 -11.6158 -5.4504 0
M  V30 141 C 4.7143 -12.2906 -4.3285 0
M  V30 142 C 4.2646 -12.8666 -3.3697 0
M  V30 143 H 2.0266 -12.3558 -1.5766 0
M  V30 144 C 3.0700 -12.5565 -1.2541 0
M  V30 145 N 4.4591 -13.2786 0.6853 0
M  V30 146 C 5.4419 -13.6512 -0.3477 0
M  V30 147 C 4.8155 -14.3993 -1.5300 0
M  V30 148 H 5.9704 -12.7428 -0.7076 0
M  V30 149 C 3.7182 -13.5665 -2.2041 0
M  V30 150 H 2.5501 -12.3790 0.8487 0
M  V30 151 C 3.0904 -13.0811 0.1804 0
M  V30 152 H 4.3842 -15.3579 -1.1718 0
M  V30 153 C 5.3616 -3.7137 -11.6769 0
M  V30 154 H 8.1323 -4.3139 -10.7115 0
M  V30 155 H 5.2403 -1.5910 -11.1881 0
M  V30 156 H 4.9610 -3.5899 -12.7061 0
M  V30 157 N 6.2980 -4.8510 -11.6410 0
M  V30 158 C 7.7200 -4.4772 -11.7302 0
M  V30 159 C 7.1910 -2.0198 -12.0614 0
M  V30 160 C 5.9927 -2.4075 -11.1905 0
M  V30 161 H 7.6190 -3.4497 -13.6390 0
M  V30 162 C 7.9506 -3.2376 -12.6007 0
M  V30 163 C 8.1001 -1.1630 -11.2958 0
M  V30 164 C 8.8481 -0.4582 -10.6656 0
M  V30 165 C 9.7237 0.3664 -9.9274 0
M  V30 166 C 10.4711 1.0712 -9.2966 0
M  V30 167 H 10.9428 1.4738 -6.4505 0
M  V30 168 C 10.7407 2.2819 -7.1846 0
M  V30 169 N 10.9593 4.7350 -7.5678 0
M  V30 170 C 10.8777 4.3692 -8.9931 0
M  V30 171 C 11.7551 3.1653 -9.3548 0
M  V30 172 H 9.8206 4.1676 -9.2686 0
M  V30 173 C 11.3793 1.9282 -8.5300 0
M  V30 174 H 10.8723 3.8243 -5.6590 0
M  V30 175 C 11.2813 3.6143 -6.6691 0
M  V30 176 H 12.8209 3.4196 -9.1747 0
M  V30 177 C -6.4934 5.0877 10.6966 0
M  V30 178 H -5.9412 2.8496 12.6085 0
M  V30 179 H -7.5911 4.0063 9.1523 0
M  V30 180 H -7.2200 5.9269 10.7497 0
M  V30 181 N -5.8657 4.8891 12.0151 0
M  V30 182 C -6.4605 3.8087 12.8205 0
M  V30 183 C -8.2828 3.3597 11.1158 0
M  V30 184 C -7.1756 3.8253 10.1660 0
M  V30 185 H -8.4822 4.5944 12.8913 0
M  V30 186 C -7.9673 3.6592 12.5860 0
M  V30 187 C -8.5142 1.9240 10.9370 0
M  V30 188 C -8.7043 0.7427 10.7899 0
M  V30 189 C -8.9261 -0.6404 10.6177 0
M  V30 190 C -9.1157 -1.8217 10.4700 0
M  V30 191 H -7.4963 -4.0104 9.4345 0
M  V30 192 C -8.5269 -3.7656 9.1013 0
M  V30 193 N -10.5270 -4.6969 7.9419 0
M  V30 194 C -11.2547 -3.6399 8.6664 0
M  V30 195 C -10.8474 -3.5332 10.1404 0
M  V30 196 H -11.1039 -2.6641 8.1572 0
M  V30 197 C -9.3463 -3.2575 10.2900 0
M  V30 198 H -8.5495 -5.4011 7.6700 0
M  V30 199 C -9.1894 -4.9939 8.4802 0
M  V30 200 H -11.1030 -4.4797 10.6619 0
M  V30 201 C -0.2045 13.0088 -2.7635 0
M  V30 202 H 0.2177 12.7615 -5.7182 0
M  V30 203 H 1.6773 12.1756 -2.0396 0
M  V30 204 H -0.1702 13.8965 -2.0958 0
M  V30 205 N -0.9053 13.3532 -4.0133 0
M  V30 206 C -0.0184 13.6821 -5.1425 0
M  V30 207 C 2.0756 13.5000 -3.7246 0
M  V30 208 C 1.2063 12.4671 -3.0020 0
M  V30 209 H 1.0241 15.3385 -4.2051 0
M  V30 210 C 1.2735 14.3742 -4.6959 0
M  V30 211 C 3.1567 12.8192 -4.4417 0
M  V30 212 C 4.0462 12.2588 -5.0319 0
M  V30 213 C 5.0868 11.6024 -5.7231 0
M  V30 214 C 5.9760 11.0413 -6.3129 0
M  V30 215 H 6.3297 8.3334 -7.3262 0
M  V30 216 C 7.0508 8.8704 -6.6745 0
M  V30 217 N 9.4258 8.8979 -5.9190 0
M  V30 218 C 9.1551 10.3128 -5.6082 0
M  V30 219 C 8.3980 11.0386 -6.7262 0
M  V30 220 H 8.5898 10.3859 -4.6546 0
M  V30 221 C 7.0570 10.3593 -7.0294 0
M  V30 222 H 8.4204 7.1830 -6.6461 0
M  V30 223 C 8.4498 8.2771 -6.8297 0
M  V30 224 H 9.0219 11.0510 -7.6448 0
M  V30 225 C 1.3755 -12.2069 5.3584 0
M  V30 226 H -0.6158 -13.5787 3.5916 0
M  V30 227 H 0.0694 -10.7797 6.3667 0
M  V30 228 H 1.8735 -12.5453 6.2925 0
M  V30 229 N 1.3376 -13.3134 4.3859 0
M  V30 230 C 0.0602 -14.0454 4.3398 0
M  V30 231 C -0.9235 -12.7176 6.2628 0
M  V30 232 C -0.0112 -11.6402 5.6696 0
M  V30 233 H 0.0201 -14.6675 6.4184 0
M  V30 234 C -0.6291 -14.1157 5.7063 0
M  V30 235 C -2.3247 -12.3670 6.0169 0
M  V30 236 C -3.4775 -12.0785 5.8144 0
M  V30 237 C -4.8269 -11.7406 5.5766 0
M  V30 238 C -5.9796 -11.4514 5.3738 0
M  V30 239 H -7.3208 -9.7623 3.4159 0
M  V30 240 C -7.4597 -9.6987 4.5157 0
M  V30 241 N -8.9934 -8.8581 6.2915 0
M  V30 242 C -8.3406 -9.8787 7.1306 0
M  V30 243 C -8.1901 -11.2304 6.4234 0
M  V30 244 H -7.3473 -9.5102 7.4649 0
M  V30 245 C -7.3805 -11.0995 5.1275 0
M  V30 246 H -8.8807 -8.0644 4.3325 0
M  V30 247 C -8.8012 -9.0460 4.8441 0
M  V30 248 H -9.1966 -11.6377 6.1906 0
M  V30 249 C 1.3708 -7.1077 -11.4013 0
M  V30 250 H 0.9378 -4.7881 -13.2455 0
M  V30 251 H -0.4995 -7.0557 -10.2794 0
M  V30 252 H 1.3308 -8.2025 -11.5880 0
M  V30 253 N 2.0625 -6.4377 -12.5168 0
M  V30 254 C 1.1675 -5.8394 -13.5221 0
M  V30 255 C -0.9183 -6.7383 -12.3950 0
M  V30 256 C -0.0358 -6.5576 -11.1568 0
M  V30 257 H 0.1131 -7.6546 -14.0723 0
M  V30 258 C -0.1291 -6.6349 -13.7056 0
M  V30 259 C -1.9960 -5.7457 -12.3813 0
M  V30 260 C -2.8825 -4.9289 -12.3700 0
M  V30 261 C -3.9199 -3.9721 -12.3566 0
M  V30 262 C -4.8062 -3.1550 -12.3446 0
M  V30 263 H -5.1381 -0.5581 -11.0677 0
M  V30 264 C -5.8614 -1.3981 -11.0034 0
M  V30 265 N -8.2331 -1.9583 -10.4807 0
M  V30 266 C -7.9749 -3.1565 -11.2988 0
M  V30 267 C -7.2299 -2.8444 -12.6017 0
M  V30 268 H -7.4060 -3.9020 -10.7031 0
M  V30 269 C -5.8837 -2.1622 -12.3296 0
M  V30 270 H -7.2144 -0.2558 -9.7432 0
M  V30 271 C -7.2553 -0.8732 -10.6644 0
M  V30 272 H -7.8579 -2.1829 -13.2350 0
M  V30 273 C -1.6628 5.0253 12.7982 0
M  V30 274 H 0.3339 7.2450 12.5625 0
M  V30 275 H -0.3661 3.3079 12.4394 0
M  V30 276 H -2.1533 4.5801 13.6906 0
M  V30 277 N -1.6185 6.4919 12.9347 0
M  V30 278 C -0.3342 7.0236 13.4223 0
M  V30 279 C 0.6451 4.7104 13.7670 0
M  V30 280 C -0.2803 4.4053 12.5857 0
M  V30 281 H -0.2787 5.9391 15.3012 0
M  V30 282 C 0.3618 6.0758 14.4045 0
M  V30 283 C 2.0417 4.6437 13.3291 0
M  V30 284 C 3.1907 4.5890 12.9686 0
M  V30 285 C 4.5357 4.5254 12.5460 0
M  V30 286 C 5.6846 4.4703 12.1847 0
M  V30 287 H 7.0005 4.7299 9.5990 0
M  V30 288 C 7.1437 3.8860 10.3063 0
M  V30 289 N 8.6771 2.0125 10.8986 0
M  V30 290 C 8.0380 2.1052 12.2233 0
M  V30 291 C 7.8975 3.5479 12.7221 0
M  V30 292 H 7.0427 1.6126 12.1949 0
M  V30 293 C 7.0809 4.4030 11.7456 0
M  V30 294 H 8.5479 2.8925 8.9779 0
M  V30 295 C 8.4802 3.1946 10.0436 0
M  V30 296 H 8.9069 3.9933 12.8483 0
M  V30 297 C -4.5017 11.2884 -5.5952 0
M  V30 298 H -7.3036 11.0558 -4.5637 0
M  V30 299 H -4.3622 9.4352 -6.7377 0
M  V30 300 H -4.0741 11.9216 -6.4022 0
M  V30 301 N -5.4547 12.0782 -4.7955 0
M  V30 302 C -6.8686 11.8856 -5.1610 0
M  V30 303 C -6.2967 10.3684 -7.1102 0
M  V30 304 C -5.1259 10.0226 -6.1858 0
M  V30 305 H -6.7060 12.4975 -7.2367 0
M  V30 306 C -7.0600 11.6187 -6.6576 0
M  V30 307 C -7.2120 9.2274 -7.1941 0
M  V30 308 C -7.9652 8.2886 -7.2629 0
M  V30 309 C -8.8469 7.1896 -7.3426 0
M  V30 310 C -9.5996 6.2503 -7.4109 0
M  V30 311 H -10.1355 3.9655 -5.6855 0
M  V30 312 C -9.9039 3.9061 -6.7698 0
M  V30 313 N -10.0780 2.4339 -8.7735 0
M  V30 314 C -9.9665 3.6960 -9.5263 0
M  V30 315 C -10.8517 4.8123 -8.9605 0
M  V30 316 H -8.9059 4.0254 -9.5511 0
M  V30 317 C -10.5141 5.1085 -7.4942 0
M  V30 318 H -10.0510 1.7377 -6.7748 0
M  V30 319 C -10.4380 2.6004 -7.3557 0
M  V30 320 H -11.9179 4.5126 -9.0409 0
M  V30 321 C 6.5782 -11.2861 4.1354 0
M  V30 322 H 5.9473 -11.0365 7.0524 0
M  V30 323 H 7.6982 -9.4391 3.8293 0
M  V30 324 H 7.3153 -11.9251 3.6029 0
M  V30 325 N 5.9155 -12.0679 5.1942 0
M  V30 326 C 6.4748 -11.8711 6.5426 0
M  V30 327 C 8.3320 -10.3659 5.6979 0
M  V30 328 C 7.2553 -10.0206 4.6652 0
M  V30 329 H 8.5051 -12.4938 6.0960 0
M  V30 330 C 7.9846 -11.6107 6.5228 0
M  V30 331 C 8.5472 -9.2214 6.5870 0
M  V30 332 C 8.7240 -8.2798 7.3187 0
M  V30 333 C 8.9303 -7.1774 8.1754 0
M  V30 334 C 9.1066 -6.2353 8.9066 0
M  V30 335 H 7.4822 -3.9397 9.6660 0
M  V30 336 C 8.5241 -3.8867 9.2855 0
M  V30 337 N 10.5387 -2.4236 9.1722 0
M  V30 338 C 11.2633 -3.6898 8.9634 0
M  V30 339 C 10.8214 -4.7996 9.9241 0
M  V30 340 H 11.1390 -4.0239 7.9112 0
M  V30 341 C 9.3211 -5.0900 9.7950 0
M  V30 342 H 8.5587 -1.7177 9.4199 0
M  V30 343 C 9.1841 -2.5816 9.7265 0
M  V30 344 H 11.0504 -4.4957 10.9673 0
M  V30 345 C 11.5554 7.0957 -2.5988 0
M  V30 346 H 13.4416 4.7761 -2.4239 0
M  V30 347 H 10.7187 7.0581 -0.5844 0
M  V30 348 H 11.7466 8.1905 -2.5941 0
M  V30 349 N 12.5574 6.4193 -3.4414 0
M  V30 350 C 13.6823 5.8254 -2.6987 0
M  V30 351 C 12.8726 6.7401 -0.4769 0
M  V30 352 C 11.5186 6.5555 -1.1679 0
M  V30 353 H 14.3818 7.6467 -1.7485 0
M  V30 354 C 14.0537 6.6293 -1.4483 0
M  V30 355 C 13.0158 5.7548 0.5980 0
M  V30 356 C 13.1336 4.9439 1.4823 0
M  V30 357 C 13.2713 3.9942 2.5170 0
M  V30 358 C 13.3883 3.1830 3.4012 0
M  V30 359 H 12.1720 0.5904 3.9338 0
M  V30 360 C 12.2146 1.4354 4.6530 0
M  V30 361 N 12.0442 2.0123 7.0717 0
M  V30 362 C 12.8166 3.2075 6.6885 0
M  V30 363 C 13.9965 2.8882 5.7634 0
M  V30 364 H 12.1446 3.9500 6.2077 0
M  V30 365 C 13.5302 2.1974 4.4761 0
M  V30 366 H 11.1648 0.3042 6.1833 0
M  V30 367 C 12.0824 0.9204 6.0850 0
M  V30 368 H 14.7143 2.2299 6.2967 0
M  V30 369 C -11.9373 -4.8985 3.8342 0
M  V30 370 H -11.9972 -7.1319 1.8398 0
M  V30 371 H -11.7707 -3.1905 2.4873 0
M  V30 372 H -12.7481 -4.4486 4.4467 0
M  V30 373 N -12.0797 -6.3652 3.8204 0
M  V30 374 C -12.7500 -6.9046 2.6248 0
M  V30 375 C -13.2326 -4.5975 1.6905 0
M  V30 376 C -11.9286 -4.2881 2.4313 0
M  V30 377 H -14.6161 -5.8175 2.8369 0
M  V30 378 C -13.8228 -5.9599 2.0731 0
M  V30 379 C -13.0033 -4.5409 0.2445 0
M  V30 380 C -12.8145 -4.4944 -0.9453 0
M  V30 381 C -12.5928 -4.4405 -2.3380 0
M  V30 382 C -12.4032 -4.3938 -3.5276 0
M  V30 383 H -10.0376 -4.6664 -5.2052 0
M  V30 384 C -10.7577 -3.8223 -5.2494 0
M  V30 385 N -11.5665 -1.9582 -6.6927 0
M  V30 386 C -12.7837 -2.0444 -5.8664 0
M  V30 387 C -13.2575 -3.4854 -5.6446 0
M  V30 388 H -12.6099 -1.5452 -4.8893 0
M  V30 389 C -12.1727 -4.3366 -4.9735 0
M  V30 390 H -9.6480 -2.8404 -6.8394 0
M  V30 391 C -10.6925 -3.1403 -6.6147 0
M  V30 392 H -13.5300 -3.9373 -6.6217 0
M  V30 END ATOM
M  V30 BEGIN BOND
M  V30 1 9 1 4
M  V30 2 9 6 4
M  V30 3 9 8 4
M  V30 4 1 1 13
M  V30 5 1 1 7
M  V30 6 1 1 11
M  V30 7 1 8 5
M  V30 8 1 8 2
M  V30 9 1 8 10
M  V30 10 1 6 3
M  V30 11 1 6 12
M  V30 12 1 6 9
M  V30 13 9 14 17
M  V30 14 9 19 17
M  V30 15 9 21 17
M  V30 16 1 14 26
M  V30 17 1 14 20
M  V30 18 1 14 24
M  V30 19 1 21 18
M  V30 20 1 21 15
M  V30 21 1 21 23
M  V30 22 1 19 16
M  V30 23 1 19 25
M  V30 24 1 19 22
M  V30 25 9 27 30
M  V30 26 9 32 30
M  V30 27 9 34 30
M  V30 28 1 27 39
M  V30 29 1 27 33
M  V30 30 1 27 37
M  V30 31 1 34 31
M  V30 32 1 34 28
M  V30 33 1 34 36
M  V30 34 1 32 29
M  V30 35 1 32 38
M  V30 36 1 32 35
M  V30 37 9 40 43
M  V30 38 9 45 43
M  V30 39 9 47 43
M  V30 40 1 40 52
M  V30 41 1 40 46
M  V30 42 1 40 50
M  V30 43 1 47 44
M  V30 44 1 47 41
M  V30 45 1 47 49
M  V30 46 1 45 42
M  V30 47 1 45 51
M  V30 48 1 45 48
M  V30 49 9 53 56
M  V30 50 9 58 56
M  V30 51 9 60 56
M  V30 52 1 53 65
M  V30 53 1 53 59
M  V30 54 1 53 63
M  V30 55 1 60 57
M  V30 56 1 60 54
M  V30 57 1 60 62
M  V30 58 1 58 55
M  V30 59 1 58 64
M  V30 60 1 58 61
M  V30 61 9 66 69
M  V30 62 9 71 69
M  V30 63 9 73 69
M  V30 64 1 66 78
M  V30 65 1 66 72
M  V30 66 1 66 76
M  V30 67 1 73 70
M  V30 68 1 73 67
M  V30 69 1 73 75
M  V30 70 1 71 68
M  V30 71 1 71 77
M  V30 72 1 71 74
M  V30 73 9 79 82
M  V30 74 9 84 82
M  V30 75 9 86 82
M  V30 76 1 79 91
M  V30 77 1 79 85
M  V30 78 1 79 89
M  V30 79 1 86 83
M  V30 80 1 86 80
M  V30 81 1 86 88
M  V30 82 1 84 81
M  V30 83 1 84 90
M  V30 84 1 84 87
M  V30 85 9 92 95
M  V30 86 9 97 95
M  V30 87 9 99 95
M  V30 88 1 92 104
M  V30 89 1 92 98
M  V30 90 1 92 102
M  V30 91 1 99 96
M  V30 92 1 99 93
M  V30 93 1 99 101
M  V30 94 1 97 94
M  V30 95 1 97 103
M  V30 96 1 97 100
M  V30 97 1 114 113
M  V30 98 1 109 110
M  V30 99 1 109 105
M  V30 100 1 110 106
M  V30 101 1 110 114
M  V30 102 1 111 112
M  V30 103 1 111 114
M  V30 104 1 112 105
M  V30 105 1 112 107
M  V30 106 1 105 108
M  V30 107 3 115 116
M  V30 108 1 116 117
M  V30 109 3 117 118
M  V30 110 1 121 122
M  V30 111 1 121 127
M  V30 112 1 125 123
M  V30 113 1 125 120
M  V30 114 1 120 119
M  V30 115 1 120 127
M  V30 116 1 127 126
M  V30 117 1 122 123
M  V30 118 1 122 124
M  V30 119 1 123 128
M  V30 120 1 111 115
M  V30 121 1 118 125
M  V30 122 1 138 137
M  V30 123 1 133 134
M  V30 124 1 133 129
M  V30 125 1 134 130
M  V30 126 1 134 138
M  V30 127 1 135 136
M  V30 128 1 135 138
M  V30 129 1 136 129
M  V30 130 1 136 131
M  V30 131 1 129 132
M  V30 132 3 139 140
M  V30 133 1 140 141
M  V30 134 3 141 142
M  V30 135 1 145 146
M  V30 136 1 145 151
M  V30 137 1 149 147
M  V30 138 1 149 144
M  V30 139 1 144 143
M  V30 140 1 144 151
M  V30 141 1 151 150
M  V30 142 1 146 147
M  V30 143 1 146 148
M  V30 144 1 147 152
M  V30 145 1 135 139
M  V30 146 1 142 149
M  V30 147 1 162 161
M  V30 148 1 157 158
M  V30 149 1 157 153
M  V30 150 1 158 154
M  V30 151 1 158 162
M  V30 152 1 159 160
M  V30 153 1 159 162
M  V30 154 1 160 153
M  V30 155 1 160 155
M  V30 156 1 153 156
M  V30 157 3 163 164
M  V30 158 1 164 165
M  V30 159 3 165 166
M  V30 160 1 169 170
M  V30 161 1 169 175
M  V30 162 1 173 171
M  V30 163 1 173 168
M  V30 164 1 168 167
M  V30 165 1 168 175
M  V30 166 1 175 174
M  V30 167 1 170 171
M  V30 168 1 170 172
M  V30 169 1 171 176
M  V30 170 1 159 163
M  V30 171 1 166 173
M  V30 172 1 186 185
M  V30 173 1 181 182
M  V30 174 1 181 177
M  V30 175 1 182 178
M  V30 176 1 182 186
M  V30 177 1 183 184
M  V30 178 1 183 186
M  V30 179 1 184 177
M  V30 180 1 184 179
M  V30 181 1 177 180
M  V30 182 3 187 188
M  V30 183 1 188 189
M  V30 184 3 189 190
M  V30 185 1 193 194
M  V30 186 1 193 199
M  V30 187 1 197 195
M  V30 188 1 197 192
M  V30 189 1 192 191
M  V30 190 1 192 199
M  V30 191 1 199 198
M  V30 192 1 194 195
M  V30 193 1 194 196
M  V30 194 1 195 200
M  V30 195 1 183 187
M  V30 196 1 190 197
M  V30 197 1 210 209
M  V30 198 1 205 206
M  V30 199 1 205 201
M  V30 200 1 206 202
M  V30 201 1 206 210
M  V30 202 1 207 208
M  V30 203 1 207 210
M  V30 204 1 208 201
M  V30 205 1 208 203
M  V30 206 1 201 204
M  V30 207 3 211 212
M  V30 208 1 212 213
M  V30 209 3 213 214
M  V30 210 1 217 218
M  V30 211 1 217 223
M  V30 212 1 221 219
M  V30 213 1 221 216
M  V30 214 1 216 215
M  V30 215 1 216 223
M  V30 216 1 223 222
M  V30 217 1 218 219
M  V30 218 1 218 220
M  V30 219 1 219 224
M  V30 220 1 207 211
M  V30 221 1 214 221
M  V30 222 1 234 233
M  V30 223 1 229 230
M  V30 224 1 229 225
M  V30 225 1 230 226
M  V30 226 1 230 234
M  V30 227 1 231 232
M  V30 228 1 231 234
M  V30 229 1 232 225
M  V30 230 1 232 227
M  V30 231 1 225 228
M  V30 232 3 235 236
M  V30 233 1 236 237
M  V30 234 3 237 238
M  V30 235 1 241 242
M  V30 236 1 241 247
M  V30 237 1 245 243
M  V30 238 1 245 240
M  V30 239 1 240 239
M  V30 240 1 240 247
M  V30 241 1 247 246
M  V30 242 1 242 243
M  V30 243 1 242 244
M  V30 244 1 243 248
M  V30 245 1 231 235
M  V30 246 1 238 245
M  V30 247 1 258 257
M  V30 248 1 253 254
M  V30 249 1 253 249
M  V30 250 1 254 250
M  V30 251 1 254 258
M  V30 252 1 255 256
M  V30 253 1 255 258
M  V30 254 1 256 249
M  V30 255 1 256 251
M  V30 256 1 249 252
M  V30 257 3 259 260
M  V30 258 1 260 261
M  V30 259 3 261 262
M  V30 260 1 265 266
M  V30 261 1 265 271
M  V30 262 1 269 267
M  V30 263 1 269 264
M  V30 264 1 264 263
M  V30 265 1 264 271
M  V30 266 1 271 270
M  V30 267 1 266 267
M  V30 268 1 266 268
M  V30 269 1 267 272
M  V30 270 1 255 259
M  V30 271 1 262 269
M  V30 272 1 282 281
M  V30 273 1 277 278
M  V30 274 1 277 273
M  V30 275 1 278 274
M  V30 276 1 278 282
M  V30 277 1 279 280
M  V30 278 1 279 282
M  V30 279 1 280 273
M  V30 280 1 280 275
M  V30 281 1 273 276
M  V30 282 3 283 284
M  V30 283 1 284 285
M  V30 284 3 285 286
M  V30 285 1 289 290
M  V30 286 1 289 295
M  V30 287 1 293 291
M  V30 288 1 293 288
M  V30 289 1 288 287
M  V30 290 1 288 295
M  V30 291 1 295 294
M  V30 292 1 290 291
M  V30 293 1 290 292
M  V30 294 1 291 296
M  V30 295 1 279 283
M  V30 296 1 286 293
M  V30 297 1 306 305
M  V30 298 1 301 302
M  V30 299 1 301 297
M  V30 300 1 302 298
M  V30 301 1 302 306
M  V30 302 1 303 304
M  V30 303 1 303 306
M  V30 304 1 304 297
M  V30 305 1 304 299
M  V30 306 1 297 300
M  V30 307 3 307 308
M  V30 308 1 308 309
M  V30 309 3 309 310
M  V30 310 1 313 314
M  V30 311 1 313 319
M  V30 312 1 317 315
M  V30 313 1 317 312
M  V30 314 1 312 311
M  V30 315 1 312 319
M  V30 316 1 319 318
M  V30 317 1 314 315
M  V30 318 1 314 316
M  V30 319 1 315 320
M  V30 320 1 303 307
M  V30 321 1 310 317
M  V30 322 1 330 329
M  V30 323 1 325 326
M  V30 324 1 325 321
M  V30 325 1 326 322
M  V30 326 1 326 330
M  V30 327 1 327 328
M  V30 328 1 327 330
M  V30 329 1 328 321
M  V30 330 1 328 323
M  V30 331 1 321 324
M  V30 332 3 331 332
M  V30 333 1 332 333
M  V30 334 3 333 334
M  V30 335 1 337 338
M  V30 336 1 337 343
M  V30 337 1 341 339
M  V30 338 1 341 336
M  V30 339 1 336 335
M  V30 340 1 336 343
M  V30 341 1 343 342
M  V30 342 1 338 339
M  V30 343 1 338 340
M  V30 344 1 339 344
M  V30 345 1 327 331
M  V30 346 1 334 341
M  V30 347 1 354 353
M  V30 348 1 349 350
M  V30 349 1 349 345
M  V30 350 1 350 346
M  V30 351 1 350 354
M  V30 352 1 351 352
M  V30 353 1 351 354
M  V30 354 1 352 345
M  V30 355 1 352 347
M  V30 356 1 345 348
M  V30 357 3 355 356
M  V30 358 1 356 357
M  V30 359 3 357 358
M  V30 360 1 361 362
M  V30 361 1 361 367
M  V30 362 1 365 363
M  V30 363 1 365 360
M  V30 364 1 360 359
M  V30 365 1 360 367
M  V30 366 1 367 366
M  V30 367 1 362 363
M  V30 368 1 362 364
M  V30 369 1 363 368
M  V30 370 1 351 355
M  V30 371 1 358 365
M  V30 372 1 378 377
M  V30 373 1 373 374
M  V30 374 1 373 369
M  V30 375 1 374 370
M  V30 376 1 374 378
M  V30 377 1 375 376
M  V30 378 1 375 378
M  V30 379 1 376 369
M  V30 380 1 376 371
M  V30 381 1 369 372
M  V30 382 3 379 380
M  V30 383 1 380 381
M  V30 384 3 381 382
M  V30 385 1 385 386
M  V30 386 1 385 391
M  V30 387 1 389 387
M  V30 388 1 389 384
M  V30 389 1 384 383
M  V30 390 1 384 391
M  V30 391 1 391 390
M  V30 392 1 386 387
M  V30 393 1 386 388
M  V30 394 1 387 392
M  V30 395 1 375 379
M  V30 396 1 382 389
M  V30 397 9 109 17
M  V30 398 9 133 4
M  V30 399 9 157 4
M  V30 400 9 181 17
M  V30 401 9 205 30
M  V30 402 9 229 43
M  V30 403 9 253 4
M  V30 404 9 277 17
M  V30 405 9 169 56
M  V30 406 9 193 69
M  V30 407 9 301 30
M  V30 408 9 325 43
M  V30 409 9 217 56
M  V30 410 9 241 69
M  V30 411 9 265 82
M  V30 412 9 289 95
M  V30 413 9 349 56
M  V30 414 9 373 69
M  V30 415 9 313 82
M  V30 416 9 337 95
M  V30 417 9 361 95
M  V30 418 9 385 82
M  V30 419 9 145 43
M  V30 420 9 121 30
M  V30 END BOND
M  V30 END CTAB
M  END

$$$$
