
     RDKit          3D

  0  0  0  0  0  0  0  0  0  0999 V3000
M  V30 BEGIN CTAB
M  V30 COUNTS 344 372 0 0 0
M  V30 BEGIN ATOM
M  V30 1 C 4.1809 -5.4470 -8.7722 0
M  V30 2 H 2.5449 -6.4460 -6.6452 0
M  V30 3 H 3.6889 -2.5000 -8.3312 0
M  V30 4 Pt 2.2789 -4.7040 -8.5032 0
M  V30 5 H 1.5739 -5.2910 -6.1122 0
M  V30 6 C 3.1099 -2.9320 -7.6702 0
M  V30 7 H 4.1739 -6.4170 -8.6412 0
M  V30 8 C 2.4059 -5.4760 -6.5952 0
M  V30 9 H 3.6349 -3.1610 -6.8742 0
M  V30 10 H 3.1579 -5.0630 -6.1242 0
M  V30 11 H 4.7869 -5.0330 -8.1202 0
M  V30 12 H 2.3869 -2.3200 -7.4172 0
M  V30 13 H 4.4869 -5.2400 -9.6792 0
M  V30 14 C -1.6329 3.8207 7.0836 0
M  V30 15 H -3.2689 2.8217 9.2106 0
M  V30 16 H -2.1249 6.7677 7.5246 0
M  V30 17 Pt -3.5349 4.5637 7.3526 0
M  V30 18 H -4.2399 3.9767 9.7436 0
M  V30 19 C -2.7039 6.3357 8.1856 0
M  V30 20 H -1.6399 2.8507 7.2146 0
M  V30 21 C -3.4079 3.7917 9.2606 0
M  V30 22 H -2.1789 6.1067 8.9816 0
M  V30 23 H -2.6559 4.2047 9.7316 0
M  V30 24 H -1.0269 4.2347 7.7356 0
M  V30 25 H -3.4269 6.9477 8.4386 0
M  V30 26 H -1.3269 4.0277 6.1766 0
M  V30 27 C -1.2760 8.2256 -3.0680 0
M  V30 28 H -2.9120 7.2266 -0.9410 0
M  V30 29 H -1.7680 11.1726 -2.6270 0
M  V30 30 Pt -3.1780 8.9686 -2.7990 0
M  V30 31 H -3.8830 8.3816 -0.4080 0
M  V30 32 C -2.3470 10.7406 -1.9660 0
M  V30 33 H -1.2830 7.2556 -2.9370 0
M  V30 34 C -3.0510 8.1966 -0.8910 0
M  V30 35 H -1.8220 10.5116 -1.1700 0
M  V30 36 H -2.2990 8.6096 -0.4200 0
M  V30 37 H -0.6700 8.6396 -2.4160 0
M  V30 38 H -3.0700 11.3526 -1.7130 0
M  V30 39 H -0.9700 8.4326 -3.9750 0
M  V30 40 C 3.7953 -9.7749 1.4188 0
M  V30 41 H 2.1593 -10.7739 3.5458 0
M  V30 42 H 3.3033 -6.8279 1.8598 0
M  V30 43 Pt 1.8933 -9.0319 1.6878 0
M  V30 44 H 1.1883 -9.6189 4.0788 0
M  V30 45 C 2.7243 -7.2599 2.5208 0
M  V30 46 H 3.7883 -10.7449 1.5498 0
M  V30 47 C 2.0203 -9.8039 3.5958 0
M  V30 48 H 3.2493 -7.4889 3.3168 0
M  V30 49 H 2.7723 -9.3909 4.0668 0
M  V30 50 H 4.4013 -9.3609 2.0708 0
M  V30 51 H 2.0013 -6.6479 2.7738 0
M  V30 52 H 4.1013 -9.5679 0.5118 0
M  V30 53 C 8.6711 3.7833 -4.8522 0
M  V30 54 H 7.0351 2.7843 -2.7252 0
M  V30 55 H 8.1791 6.7303 -4.4112 0
M  V30 56 Pt 6.7691 4.5263 -4.5832 0
M  V30 57 H 6.0641 3.9393 -2.1922 0
M  V30 58 C 7.6001 6.2983 -3.7502 0
M  V30 59 H 8.6641 2.8133 -4.7212 0
M  V30 60 C 6.8961 3.7543 -2.6752 0
M  V30 61 H 8.1251 6.0693 -2.9542 0
M  V30 62 H 7.6481 4.1673 -2.2042 0
M  V30 63 H 9.2771 4.1973 -4.2002 0
M  V30 64 H 6.8771 6.9103 -3.4972 0
M  V30 65 H 8.9771 3.9903 -5.7592 0
M  V30 66 C -6.1861 -5.4094 3.2384 0
M  V30 67 H -7.8221 -6.4084 5.3654 0
M  V30 68 H -6.6781 -2.4624 3.6794 0
M  V30 69 Pt -8.0881 -4.6664 3.5074 0
M  V30 70 H -8.7931 -5.2534 5.8984 0
M  V30 71 C -7.2571 -2.8944 4.3404 0
M  V30 72 H -6.1931 -6.3794 3.3694 0
M  V30 73 C -7.9611 -5.4384 5.4154 0
M  V30 74 H -6.7321 -3.1234 5.1364 0
M  V30 75 H -7.2091 -5.0254 5.8864 0
M  V30 76 H -5.5801 -4.9954 3.8904 0
M  V30 77 H -7.9801 -2.2824 4.5934 0
M  V30 78 H -5.8801 -5.2024 2.3314 0
M  V30 79 C -6.0345 -1.1913 -7.1645 0
M  V30 80 H -7.6705 -2.1903 -5.0375 0
M  V30 81 H -6.5265 1.7557 -6.7235 0
M  V30 82 Pt -7.9365 -0.4483 -6.8955 0
M  V30 83 H -8.6415 -1.0353 -4.5045 0
M  V30 84 C -7.1055 1.3237 -6.0625 0
M  V30 85 H -6.0415 -2.1613 -7.0335 0
M  V30 86 C -7.8095 -1.2203 -4.9875 0
M  V30 87 H -6.5805 1.0947 -5.2665 0
M  V30 88 H -7.0575 -0.8073 -4.5165 0
M  V30 89 H -5.4285 -0.7773 -6.5125 0
M  V30 90 H -7.8285 1.9357 -5.8095 0
M  V30 91 H -5.7285 -0.9843 -8.0715 0
M  V30 92 C 8.4342 -0.4131 5.4116 0
M  V30 93 H 6.7982 -1.4121 7.5386 0
M  V30 94 H 7.9422 2.5339 5.8526 0
M  V30 95 Pt 6.5322 0.3299 5.6806 0
M  V30 96 H 5.8272 -0.2571 8.0716 0
M  V30 97 C 7.3632 2.1019 6.5136 0
M  V30 98 H 8.4272 -1.3831 5.5426 0
M  V30 99 C 6.6592 -0.4421 7.5886 0
M  V30 100 H 7.8882 1.8729 7.3096 0
M  V30 101 H 7.4112 -0.0291 8.0596 0
M  V30 102 H 9.0402 0.0009 6.0636 0
M  V30 103 H 6.6402 2.7139 6.7666 0
M  V30 104 H 8.7402 -0.2061 4.5046 0
M  V30 105 C -1.9956 7.0226 6.3428 0
M  V30 106 H -4.9470 8.0785 2.4760 0
M  V30 107 C -4.1297 8.4554 2.1761 0
M  V30 108 H -5.1825 7.0035 6.7678 0
M  V30 109 N -2.8767 9.4988 0.4000 0
M  V30 110 H -0.9313 7.6504 4.5990 0
M  V30 111 C -1.8462 9.5794 1.2314 0
M  V30 112 C -1.8496 9.1238 2.5202 0
M  V30 113 H -1.0474 9.9796 0.9063 0
M  V30 114 H -1.0895 6.8063 6.8693 0
M  V30 115 N -3.1497 6.7844 6.9648 0
M  V30 116 C -3.0163 8.5182 3.0065 0
M  V30 117 C -4.2374 7.1453 6.2865 0
M  V30 118 C -3.0399 7.8919 4.3610 0
M  V30 119 H -4.8564 8.9281 0.2514 0
M  V30 120 C -1.8924 7.5336 5.0546 0
M  V30 121 C -3.9998 8.9650 0.8915 0
M  V30 122 H -5.1774 7.9426 4.5458 0
M  V30 123 C -4.2520 7.6859 5.0176 0
M  V30 124 H -1.0813 9.2156 3.0709 0
M  V30 125 C 4.4551 -6.3345 -5.5727 0
M  V30 126 H 1.6217 -9.2746 -2.7256 0
M  V30 127 C 2.3648 -9.1432 -2.1507 0
M  V30 128 H 2.1577 -8.1017 -6.9645 0
M  V30 129 N 3.3627 -9.4536 0.0221 0
M  V30 130 H 5.0817 -6.4117 -3.5309 0
M  V30 131 C 4.4485 -8.8448 -0.4362 0
M  V30 132 C 4.5845 -8.3461 -1.7016 0
M  V30 133 H 5.1831 -8.7457 0.1592 0
M  V30 134 H 5.1819 -5.5864 -5.8114 0
M  V30 135 N 3.6358 -6.7392 -6.5426 0
M  V30 136 C 3.5031 -8.4727 -2.5842 0
M  V30 137 C 2.8069 -7.7242 -6.2022 0
M  V30 138 C 3.5463 -7.8400 -3.9353 0
M  V30 139 H 1.4875 -10.1384 -0.5087 0
M  V30 140 C 4.4268 -6.8212 -4.2714 0
M  V30 141 C 2.3570 -9.6130 -0.8446 0
M  V30 142 H 2.0107 -9.0870 -4.7675 0
M  V30 143 C 2.7122 -8.3004 -4.9525 0
M  V30 144 H 5.3907 -7.9251 -1.9747 0
M  V30 145 C 4.2894 -1.8492 -8.2202 0
M  V30 146 H 8.2190 -0.2780 -5.5995 0
M  V30 147 C 7.8378 0.5530 -5.8525 0
M  V30 148 H 6.7399 -3.8716 -7.7277 0
M  V30 149 N 7.8380 2.9567 -5.6639 0
M  V30 150 H 4.2116 0.2275 -7.7211 0
M  V30 151 C 6.8382 2.9830 -6.5352 0
M  V30 152 C 6.2689 1.8755 -7.0989 0
M  V30 153 H 6.4909 3.8328 -6.7825 0
M  V30 154 H 3.3092 -1.8261 -8.6486 0
M  V30 155 N 4.9340 -3.0153 -8.2014 0
M  V30 156 C 6.7620 0.6161 -6.7309 0
M  V30 157 C 6.1765 -2.9620 -7.7255 0
M  V30 158 C 6.1011 -0.6308 -7.2166 0
M  V30 159 H 9.1671 1.7104 -4.6907 0
M  V30 160 C 4.8077 -0.6611 -7.7193 0
M  V30 161 C 8.3330 1.7524 -5.3595 0
M  V30 162 H 7.8041 -1.8875 -6.8618 0
M  V30 163 C 6.8006 -1.8362 -7.2297 0
M  V30 164 H 5.5580 1.9579 -7.7232 0
M  V30 165 C -5.1384 3.0338 7.4848 0
M  V30 166 H -5.1503 -1.8838 8.2564 0
M  V30 167 C -5.8259 -1.8122 7.5943 0
M  V30 168 H -3.8747 1.8836 10.2084 0
M  V30 169 N -7.3504 -2.9138 6.0858 0
M  V30 170 H -6.2056 1.9352 5.9942 0
M  V30 171 C -7.7838 -1.7159 5.7161 0
M  V30 172 C -7.3043 -0.5316 6.2020 0
M  V30 173 H -8.4750 -1.6786 5.0643 0
M  V30 174 H -5.2640 3.9553 6.9557 0
M  V30 175 N -4.4464 3.0583 8.6233 0
M  V30 176 C -6.2750 -0.5727 7.1523 0
M  V30 177 C -4.3910 1.8962 9.2712 0
M  V30 178 C -5.6273 0.6854 7.6266 0
M  V30 179 H -6.0689 -3.8975 7.3731 0
M  V30 180 C -5.7074 1.8890 6.9400 0
M  V30 181 C -6.4037 -2.9410 7.0297 0
M  V30 182 H -4.8428 -0.1826 9.4256 0
M  V30 183 C -4.9411 0.7072 8.8396 0
M  V30 184 H -7.6598 0.2967 5.9030 0
M  V30 185 C 0.8129 9.2109 -1.9640 0
M  V30 186 H 3.5636 7.2700 -5.6306 0
M  V30 187 C 4.2053 7.3013 -4.9326 0
M  V30 188 H -0.1669 9.5769 -5.0043 0
M  V30 189 N 6.4131 6.7388 -4.1435 0
M  V30 190 H 2.6678 8.3844 -1.2980 0
M  V30 191 C 6.1209 7.3624 -3.0098 0
M  V30 192 C 4.9221 7.9605 -2.7381 0
M  V30 193 H 6.7923 7.3926 -2.3373 0
M  V30 194 H 0.4946 9.4122 -0.9624 0
M  V30 195 N -0.0231 9.5145 -2.9563 0
M  V30 196 C 3.9190 7.9098 -3.7157 0
M  V30 197 C 0.4613 9.3110 -4.1799 0
M  V30 198 C 2.5516 8.4352 -3.4299 0
M  V30 199 H 5.6951 6.2801 -6.0253 0
M  V30 200 C 2.0712 8.6499 -2.1456 0
M  V30 201 C 5.4659 6.7412 -5.0873 0
M  V30 202 H 2.0073 8.6538 -5.4942 0
M  V30 203 C 1.7022 8.7873 -4.4773 0
M  V30 204 H 4.7736 8.3984 -1.9087 0
M  V30 205 C 0.3059 -8.5146 4.2831 0
M  V30 206 H -4.2949 -8.4826 2.3831 0
M  V30 207 C -4.4375 -7.9989 3.1866 0
M  V30 208 H -0.4682 -10.6903 2.0460 0
M  V30 209 N -5.9254 -6.6937 4.5635 0
M  V30 210 H -1.0083 -7.1301 5.2441 0
M  V30 211 C -4.9565 -6.6190 5.4663 0
M  V30 212 C -3.7152 -7.1733 5.3222 0
M  V30 213 H -5.1374 -6.1432 6.2693 0
M  V30 214 H 1.1464 -8.1770 4.8528 0
M  V30 215 N 0.5107 -9.4694 3.3763 0
M  V30 216 C -3.4311 -7.8645 4.1365 0
M  V30 217 C -0.5865 -9.8983 2.7557 0
M  V30 218 C -2.0574 -8.3834 3.8694 0
M  V30 219 H -6.4403 -7.5071 2.7358 0
M  V30 220 C -0.9285 -7.9289 4.5367 0
M  V30 221 C -5.6590 -7.3986 3.4589 0
M  V30 222 H -2.6878 -9.8140 2.3993 0
M  V30 223 C -1.8624 -9.4107 2.9479 0
M  V30 224 H -3.0632 -7.0916 6.0078 0
M  V30 225 C 0.1987 -4.9492 -8.0244 0
M  V30 226 H -2.5494 -0.9412 -9.1023 0
M  V30 227 C -3.1883 -1.4681 -8.6394 0
M  V30 228 H 1.1612 -2.9930 -10.3876 0
M  V30 229 N -5.3869 -1.6482 -7.6663 0
M  V30 230 H -1.6451 -4.8598 -6.9474 0
M  V30 231 C -5.0957 -2.9017 -7.3445 0
M  V30 232 C -3.9016 -3.5138 -7.6049 0
M  V30 233 H -5.7643 -3.4091 -6.8979 0
M  V30 234 H 0.5195 -5.8168 -7.4864 0
M  V30 235 N 1.0272 -4.4389 -8.9348 0
M  V30 236 C -2.9024 -2.7717 -8.2493 0
M  V30 237 C 0.5394 -3.4078 -9.6219 0
M  V30 238 C -1.5389 -3.3448 -8.4490 0
M  V30 239 H -4.6730 0.0326 -8.6319 0
M  V30 240 C -1.0549 -4.4278 -7.7284 0
M  V30 241 C -4.4440 -0.9668 -8.3255 0
M  V30 242 H -1.0061 -1.9957 -10.0306 0
M  V30 243 C -0.6977 -2.8278 -9.4327 0
M  V30 244 H -3.7536 -4.4181 -7.3554 0
M  V30 245 C -0.3254 3.1867 9.3383 0
M  V30 246 H 4.2663 4.5306 7.9639 0
M  V30 247 C 4.4079 3.6138 8.1625 0
M  V30 248 H 0.4599 6.3043 9.3766 0
M  V30 249 N 5.8892 1.7115 8.1436 0
M  V30 250 H 0.9796 1.5330 8.9780 0
M  V30 251 C 4.9236 1.0071 8.7188 0
M  V30 252 C 3.6872 1.4966 9.0355 0
M  V30 253 H 5.1035 0.0959 8.9223 0
M  V30 254 H -1.1665 2.5436 9.4925 0
M  V30 255 N -0.5249 4.5022 9.4121 0
M  V30 256 C 3.4044 2.8342 8.7270 0
M  V30 257 C 0.5737 5.2442 9.2868 0
M  V30 258 C 2.0347 3.3893 8.9349 0
M  V30 259 H 6.4037 3.5971 7.4751 0
M  V30 260 C 0.9044 2.5960 9.0740 0
M  V30 261 C 5.6247 2.9995 7.9004 0
M  V30 262 H 2.6724 5.4383 8.9595 0
M  V30 263 C 1.8456 4.7653 9.0513 0
M  V30 264 H 3.0375 0.9442 9.4534 0
M  V30 265 C -3.4760 7.4665 -4.4497 0
M  V30 266 H -7.4463 4.5348 -3.8018 0
M  V30 267 C -7.0472 4.1193 -4.5555 0
M  V30 268 H -5.9665 8.5751 -2.7449 0
M  V30 269 N -7.0177 2.2784 -6.1122 0
M  V30 270 H -3.3809 5.6391 -5.5538 0
M  V30 271 C -5.9964 2.8654 -6.7220 0
M  V30 272 C -5.4292 4.0450 -6.3277 0
M  V30 273 H -5.6311 2.4330 -7.4859 0
M  V30 274 H -2.4853 7.7445 -4.7433 0
M  V30 275 N -4.1374 8.2868 -3.6340 0
M  V30 276 C -5.9492 4.6847 -5.1941 0
M  V30 277 C -5.3904 7.9229 -3.3677 0
M  V30 278 C -5.2943 5.9077 -4.6439 0
M  V30 279 H -8.3881 2.4891 -4.5809 0
M  V30 280 C -3.9895 6.2735 -4.9439 0
M  V30 281 C -7.5372 2.9237 -5.0626 0
M  V30 282 H -7.0233 6.5635 -3.5548 0
M  V30 283 C -6.0104 6.7787 -3.8246 0
M  V30 284 H -4.7021 4.4205 -6.8096 0
M  V30 285 C 5.3802 -7.4654 3.3145 0
M  V30 286 H 5.3031 -4.5136 7.3219 0
M  V30 287 C 5.9957 -4.1035 6.8198 0
M  V30 288 H 4.0335 -8.5550 6.0232 0
M  V30 289 N 7.5411 -2.2705 6.5652 0
M  V30 290 H 6.4681 -5.6439 3.0579 0
M  V30 291 C 8.0005 -2.8648 5.4720 0
M  V30 292 C 7.5261 -4.0449 4.9709 0
M  V30 293 H 8.7080 -2.4378 5.0019 0
M  V30 294 H 5.5320 -7.7491 2.2940 0
M  V30 295 N 4.6608 -8.2788 4.0870 0
M  V30 296 C 6.4731 -4.6768 5.6465 0
M  V30 297 C 4.5729 -7.9084 5.3630 0
M  V30 298 C 5.8319 -5.8999 5.0805 0
M  V30 299 H 6.2143 -2.4678 8.1362 0
M  V30 300 C 5.9461 -6.2727 3.7485 0
M  V30 301 C 6.5711 -2.9084 7.2287 0
M  V30 302 H 4.9910 -6.5429 6.9473 0
M  V30 303 C 5.1165 -6.7637 5.9079 0
M  V30 304 H 7.9006 -4.4258 4.1857 0
M  V30 305 C 8.4529 4.9712 -0.9093 0
M  V30 306 H 9.9181 0.9799 1.6794 0
M  V30 307 C 9.5538 1.5118 2.3753 0
M  V30 308 H 10.6489 3.0047 -2.1933 0
M  V30 309 N 8.9124 1.7082 4.6912 0
M  V30 310 H 7.6567 4.8958 1.0725 0
M  V30 311 C 8.5523 2.9602 4.4415 0
M  V30 312 C 8.6359 3.5640 3.2180 0
M  V30 313 H 8.2085 3.4729 5.1647 0
M  V30 314 H 7.8744 5.8374 -1.1541 0
M  V30 315 N 9.2322 4.4538 -1.8584 0
M  V30 316 C 9.1270 2.8141 2.1405 0
M  V30 317 C 9.9825 3.4249 -1.4691 0
M  V30 318 C 9.1257 3.3778 0.7586 0
M  V30 319 H 9.7623 0.0211 3.8554 0
M  V30 320 C 8.3428 4.4586 0.3776 0
M  V30 321 C 9.4264 1.0194 3.6668 0
M  V30 322 H 10.6117 2.0225 0.0097 0
M  V30 323 C 9.9757 2.8535 -0.2137 0
M  V30 324 H 8.3680 4.4677 3.1019 0
M  V30 325 C -8.6427 -3.0766 2.0693 0
M  V30 326 H -7.9546 -4.4534 -2.6645 0
M  V30 327 C -8.1711 -3.5373 -2.7818 0
M  V30 328 H -8.7972 -6.1994 1.3196 0
M  V30 329 N -8.3676 -1.6450 -4.2631 0
M  V30 330 H -8.4758 -1.4322 0.7144 0
M  V30 331 C -8.7952 -0.9332 -3.2287 0
M  V30 332 C -8.9281 -1.4139 -1.9559 0
M  V30 333 H -9.0221 -0.0230 -3.3832 0
M  V30 334 H -8.6719 -2.4276 2.9195 0
M  V30 335 N -8.6874 -4.3906 2.2866 0
M  V30 336 C -8.5825 -2.7501 -1.7121 0
M  V30 337 C -8.7243 -5.1401 1.1866 0
M  V30 338 C -8.5885 -3.2957 -0.3229 0
M  V30 339 H -7.7826 -3.5351 -4.8568 0
M  V30 340 C -8.5604 -2.4946 0.8101 0
M  V30 341 C -8.0892 -2.9316 -4.0281 0
M  V30 342 H -8.7072 -5.3488 -0.9361 0
M  V30 343 C -8.6768 -4.6702 -0.1094 0
M  V30 344 H -9.2464 -0.8565 -1.2560 0
M  V30 END ATOM
M  V30 BEGIN BOND
M  V30 1 9 1 4
M  V30 2 9 6 4
M  V30 3 9 8 4
M  V30 4 1 1 13
M  V30 5 1 1 7
M  V30 6 1 1 11
M  V30 7 1 8 5
M  V30 8 1 8 2
M  V30 9 1 8 10
M  V30 10 1 6 3
M  V30 11 1 6 12
M  V30 12 1 6 9
M  V30 13 9 14 17
M  V30 14 9 19 17
M  V30 15 9 21 17
M  V30 16 1 14 26
M  V30 17 1 14 20
M  V30 18 1 14 24
M  V30 19 1 21 18
M  V30 20 1 21 15
M  V30 21 1 21 23
M  V30 22 1 19 16
M  V30 23 1 19 25
M  V30 24 1 19 22
M  V30 25 9 27 30
M  V30 26 9 32 30
M  V30 27 9 34 30
M  V30 28 1 27 39
M  V30 29 1 27 33
M  V30 30 1 27 37
M  V30 31 1 34 31
M  V30 32 1 34 28
M  V30 33 1 34 36
M  V30 34 1 32 29
M  V30 35 1 32 38
M  V30 36 1 32 35
M  V30 37 9 40 43
M  V30 38 9 45 43
M  V30 39 9 47 43
M  V30 40 1 40 52
M  V30 41 1 40 46
M  V30 42 1 40 50
M  V30 43 1 47 44
M  V30 44 1 47 41
M  V30 45 1 47 49
M  V30 46 1 45 42
M  V30 47 1 45 51
M  V30 48 1 45 48
M  V30 49 9 53 56
M  V30 50 9 58 56
M  V30 51 9 60 56
M  V30 52 1 53 65
M  V30 53 1 53 59
M  V30 54 1 53 63
M  V30 55 1 60 57
M  V30 56 1 60 54
M  V30 57 1 60 62
M  V30 58 1 58 55
M  V30 59 1 58 64
M  V30 60 1 58 61
M  V30 61 9 66 69
M  V30 62 9 71 69
M  V30 63 9 73 69
M  V30 64 1 66 78
M  V30 65 1 66 72
M  V30 66 1 66 76
M  V30 67 1 73 70
M  V30 68 1 73 67
M  V30 69 1 73 75
M  V30 70 1 71 68
M  V30 71 1 71 77
M  V30 72 1 71 74
M  V30 73 9 79 82
M  V30 74 9 84 82
M  V30 75 9 86 82
M  V30 76 1 79 91
M  V30 77 1 79 85
M  V30 78 1 79 89
M  V30 79 1 86 83
M  V30 80 1 86 80
M  V30 81 1 86 88
M  V30 82 1 84 81
M  V30 83 1 84 90
M  V30 84 1 84 87
M  V30 85 9 92 95
M  V30 86 9 97 95
M  V30 87 9 99 95
M  V30 88 1 92 104
M  V30 89 1 92 98
M  V30 90 1 92 102
M  V30 91 1 99 96
M  V30 92 1 99 93
M  V30 93 1 99 101
M  V30 94 1 97 94
M  V30 95 1 97 103
M  V30 96 1 97 100
M  V30 97 1 109 111
M  V30 98 2 109 121
M  V30 99 1 116 118
M  V30 100 1 116 112
M  V30 101 2 116 107
M  V30 102 1 107 106
M  V30 103 1 107 121
M  V30 104 1 121 119
M  V30 105 2 111 112
M  V30 106 1 111 113
M  V30 107 1 112 124
M  V30 108 1 123 122
M  V30 109 1 115 117
M  V30 110 2 115 105
M  V30 111 1 117 108
M  V30 112 2 117 123
M  V30 113 2 118 120
M  V30 114 1 118 123
M  V30 115 1 120 105
M  V30 116 1 120 110
M  V30 117 1 105 114
M  V30 118 1 129 131
M  V30 119 2 129 141
M  V30 120 1 136 138
M  V30 121 1 136 132
M  V30 122 2 136 127
M  V30 123 1 127 126
M  V30 124 1 127 141
M  V30 125 1 141 139
M  V30 126 2 131 132
M  V30 127 1 131 133
M  V30 128 1 132 144
M  V30 129 1 143 142
M  V30 130 1 135 137
M  V30 131 2 135 125
M  V30 132 1 137 128
M  V30 133 2 137 143
M  V30 134 2 138 140
M  V30 135 1 138 143
M  V30 136 1 140 125
M  V30 137 1 140 130
M  V30 138 1 125 134
M  V30 139 1 149 151
M  V30 140 2 149 161
M  V30 141 1 156 158
M  V30 142 1 156 152
M  V30 143 2 156 147
M  V30 144 1 147 146
M  V30 145 1 147 161
M  V30 146 1 161 159
M  V30 147 2 151 152
M  V30 148 1 151 153
M  V30 149 1 152 164
M  V30 150 1 163 162
M  V30 151 1 155 157
M  V30 152 2 155 145
M  V30 153 1 157 148
M  V30 154 2 157 163
M  V30 155 2 158 160
M  V30 156 1 158 163
M  V30 157 1 160 145
M  V30 158 1 160 150
M  V30 159 1 145 154
M  V30 160 1 169 171
M  V30 161 2 169 181
M  V30 162 1 176 178
M  V30 163 1 176 172
M  V30 164 2 176 167
M  V30 165 1 167 166
M  V30 166 1 167 181
M  V30 167 1 181 179
M  V30 168 2 171 172
M  V30 169 1 171 173
M  V30 170 1 172 184
M  V30 171 1 183 182
M  V30 172 1 175 177
M  V30 173 2 175 165
M  V30 174 1 177 168
M  V30 175 2 177 183
M  V30 176 2 178 180
M  V30 177 1 178 183
M  V30 178 1 180 165
M  V30 179 1 180 170
M  V30 180 1 165 174
M  V30 181 1 189 191
M  V30 182 2 189 201
M  V30 183 1 196 198
M  V30 184 1 196 192
M  V30 185 2 196 187
M  V30 186 1 187 186
M  V30 187 1 187 201
M  V30 188 1 201 199
M  V30 189 2 191 192
M  V30 190 1 191 193
M  V30 191 1 192 204
M  V30 192 1 203 202
M  V30 193 1 195 197
M  V30 194 2 195 185
M  V30 195 1 197 188
M  V30 196 2 197 203
M  V30 197 2 198 200
M  V30 198 1 198 203
M  V30 199 1 200 185
M  V30 200 1 200 190
M  V30 201 1 185 194
M  V30 202 1 209 211
M  V30 203 2 209 221
M  V30 204 1 216 218
M  V30 205 1 216 212
M  V30 206 2 216 207
M  V30 207 1 207 206
M  V30 208 1 207 221
M  V30 209 1 221 219
M  V30 210 2 211 212
M  V30 211 1 211 213
M  V30 212 1 212 224
M  V30 213 1 223 222
M  V30 214 1 215 217
M  V30 215 2 215 205
M  V30 216 1 217 208
M  V30 217 2 217 223
M  V30 218 2 218 220
M  V30 219 1 218 223
M  V30 220 1 220 205
M  V30 221 1 220 210
M  V30 222 1 205 214
M  V30 223 1 229 231
M  V30 224 2 229 241
M  V30 225 1 236 238
M  V30 226 1 236 232
M  V30 227 2 236 227
M  V30 228 1 227 226
M  V30 229 1 227 241
M  V30 230 1 241 239
M  V30 231 2 231 232
M  V30 232 1 231 233
M  V30 233 1 232 244
M  V30 234 1 243 242
M  V30 235 1 235 237
M  V30 236 2 235 225
M  V30 237 1 237 228
M  V30 238 2 237 243
M  V30 239 2 238 240
M  V30 240 1 238 243
M  V30 241 1 240 225
M  V30 242 1 240 230
M  V30 243 1 225 234
M  V30 244 1 249 251
M  V30 245 2 249 261
M  V30 246 1 256 258
M  V30 247 1 256 252
M  V30 248 2 256 247
M  V30 249 1 247 246
M  V30 250 1 247 261
M  V30 251 1 261 259
M  V30 252 2 251 252
M  V30 253 1 251 253
M  V30 254 1 252 264
M  V30 255 1 263 262
M  V30 256 1 255 257
M  V30 257 2 255 245
M  V30 258 1 257 248
M  V30 259 2 257 263
M  V30 260 2 258 260
M  V30 261 1 258 263
M  V30 262 1 260 245
M  V30 263 1 260 250
M  V30 264 1 245 254
M  V30 265 1 269 271
M  V30 266 2 269 281
M  V30 267 1 276 278
M  V30 268 1 276 272
M  V30 269 2 276 267
M  V30 270 1 267 266
M  V30 271 1 267 281
M  V30 272 1 281 279
M  V30 273 2 271 272
M  V30 274 1 271 273
M  V30 275 1 272 284
M  V30 276 1 283 282
M  V30 277 1 275 277
M  V30 278 2 275 265
M  V30 279 1 277 268
M  V30 280 2 277 283
M  V30 281 2 278 280
M  V30 282 1 278 283
M  V30 283 1 280 265
M  V30 284 1 280 270
M  V30 285 1 265 274
M  V30 286 1 289 291
M  V30 287 2 289 301
M  V30 288 1 296 298
M  V30 289 1 296 292
M  V30 290 2 296 287
M  V30 291 1 287 286
M  V30 292 1 287 301
M  V30 293 1 301 299
M  V30 294 2 291 292
M  V30 295 1 291 293
M  V30 296 1 292 304
M  V30 297 1 303 302
M  V30 298 1 295 297
M  V30 299 2 295 285
M  V30 300 1 297 288
M  V30 301 2 297 303
M  V30 302 2 298 300
M  V30 303 1 298 303
M  V30 304 1 300 285
M  V30 305 1 300 290
M  V30 306 1 285 294
M  V30 307 1 309 311
M  V30 308 2 309 321
M  V30 309 1 316 318
M  V30 310 1 316 312
M  V30 311 2 316 307
M  V30 312 1 307 306
M  V30 313 1 307 321
M  V30 314 1 321 319
M  V30 315 2 311 312
M  V30 316 1 311 313
M  V30 317 1 312 324
M  V30 318 1 323 322
M  V30 319 1 315 317
M  V30 320 2 315 305
M  V30 321 1 317 308
M  V30 322 2 317 323
M  V30 323 2 318 320
M  V30 324 1 318 323
M  V30 325 1 320 305
M  V30 326 1 320 310
M  V30 327 1 305 314
M  V30 328 1 329 331
M  V30 329 2 329 341
M  V30 330 1 336 338
M  V30 331 1 336 332
M  V30 332 2 336 327
M  V30 333 1 327 326
M  V30 334 1 327 341
M  V30 335 1 341 339
M  V30 336 2 331 332
M  V30 337 1 331 333
M  V30 338 1 332 344
M  V30 339 1 343 342
M  V30 340 1 335 337
M  V30 341 2 335 325
M  V30 342 1 337 328
M  V30 343 2 337 343
M  V30 344 2 338 340
M  V30 345 1 338 343
M  V30 346 1 340 325
M  V30 347 1 340 330
M  V30 348 1 325 334
M  V30 349 9 115 17
M  V30 350 9 135 4
M  V30 351 9 155 4
M  V30 352 9 175 17
M  V30 353 9 195 30
M  V30 354 9 215 43
M  V30 355 9 235 4
M  V30 356 9 255 17
M  V30 357 9 149 56
M  V30 358 9 169 69
M  V30 359 9 275 30
M  V30 360 9 295 43
M  V30 361 9 189 56
M  V30 362 9 209 69
M  V30 363 9 229 82
M  V30 364 9 249 95
M  V30 365 9 315 56
M  V30 366 9 335 69
M  V30 367 9 269 82
M  V30 368 9 289 95
M  V30 369 9 309 95
M  V30 370 9 329 82
M  V30 371 9 129 43
M  V30 372 9 109 30
M  V30 END BOND
M  V30 END CTAB
M  END

$$$$
