
     RDKit          3D

  0  0  0  0  0  0  0  0  0  0999 V3000
M  V30 BEGIN CTAB
M  V30 COUNTS 24 25 0 0 0
M  V30 BEGIN ATOM
M  V30 1 C 1.0979 -0.7975 -1.5668 0
M  V30 2 H 2.9353 1.3064 -2.6470 0
M  V30 3 H 2.5005 -1.9350 -0.3427 0
M  V30 4 H 0.3160 -0.7452 -0.7789 0
M  V30 5 N 1.0254 0.4019 -2.4200 0
M  V30 6 C 1.9937 1.4575 -2.0769 0
M  V30 7 C 2.8535 0.1964 -0.0522 0
M  V30 8 C 2.4774 -0.9965 -0.9356 0
M  V30 9 H 1.3538 1.7671 -0.0265 0
M  V30 10 C 2.2880 1.5224 -0.5746 0
M  V30 11 C 4.3116 0.2854 0.0611 0
M  V30 12 C 5.5113 0.3586 0.1542 0
M  V30 13 C 6.9158 0.4442 0.2624 0
M  V30 14 C 8.1156 0.5167 0.3550 0
M  V30 15 H 10.3265 -0.4420 -1.2813 0
M  V30 16 C 10.2158 -0.6191 -0.1907 0
M  V30 17 N 11.4703 -1.2441 1.8703 0
M  V30 18 C 10.3606 -0.5727 2.5702 0
M  V30 19 C 9.9775 0.7702 1.9381 0
M  V30 20 H 9.4768 -1.2449 2.6035 0
M  V30 21 C 9.5739 0.6044 0.4679 0
M  V30 22 H 12.0672 -1.7537 -0.0955 0
M  V30 23 C 11.5756 -0.9147 0.4393 0
M  V30 24 H 10.8379 1.4686 2.0085 0
M  V30 END ATOM
M  V30 BEGIN BOND
M  V30 1 1 10 9
M  V30 2 1 5 6
M  V30 3 1 5 1
M  V30 4 1 6 2
M  V30 5 1 6 10
M  V30 6 1 7 8
M  V30 7 1 7 10
M  V30 8 1 8 1
M  V30 9 1 8 3
M  V30 10 1 1 4
M  V30 11 3 11 12
M  V30 12 1 12 13
M  V30 13 3 13 14
M  V30 14 1 17 18
M  V30 15 1 17 23
M  V30 16 1 21 19
M  V30 17 1 21 16
M  V30 18 1 16 15
M  V30 19 1 16 23
M  V30 20 1 23 22
M  V30 21 1 18 19
M  V30 22 1 18 20
M  V30 23 1 19 24
M  V30 24 1 7 11
M  V30 25 1 14 21
M  V30 END BOND
M  V30 END CTAB
M  END

$$$$
