11

C -3.820922 7.950193 0.252634
H -0.742622 8.878093 0.224234
H -4.861422 6.983993 1.849934
H -4.697222 7.972293 -0.360966
N -2.691922 8.443193 -0.255366
C -1.657922 8.456193 0.583634
C -2.839922 7.422193 2.381634
C -3.933922 7.409193 1.527634
H -0.781322 8.020693 2.478734
C -1.663922 7.973193 1.875634
Du -2.894922 6.933193 3.790634
