
     RDKit          3D

  0  0  0  0  0  0  0  0  0  0999 V3000
M  V30 BEGIN CTAB
M  V30 COUNTS 344 372 0 0 0
M  V30 BEGIN ATOM
M  V30 1 Pt 3.1021 -4.8668 -8.3344 0
M  V30 2 Pt -3.1029 4.8662 8.3346 0
M  V30 3 Pt -2.6039 9.2902 -2.2404 0
M  V30 4 Pt 2.6041 -9.2908 2.2406 0
M  V30 5 Pt 7.7241 4.8122 -4.2464 0
M  V30 6 Pt -7.7249 -4.8128 4.2466 0
M  V30 7 Pt -7.1999 -0.3538 -6.2554 0
M  V30 8 Pt 7.1991 0.3532 6.2556 0
M  V30 9 N -3.0449 5.8152 6.3406 0
M  V30 10 N 3.0441 -5.8158 -6.3404 0
M  V30 11 N 4.0161 -3.0438 -7.5734 0
M  V30 12 N -4.0159 3.0432 7.5736 0
M  V30 13 N -0.6049 8.5142 -2.6104 0
M  V30 14 N 0.6051 -8.5148 2.6106 0
M  V30 15 N 1.1681 -3.9358 -7.9974 0
M  V30 16 N -1.1679 3.9352 7.9976 0
M  V30 17 N 6.8921 2.9692 -5.0704 0
M  V30 18 N -6.8919 -2.9698 5.0706 0
M  V30 19 N -3.4589 7.4482 -3.0114 0
M  V30 20 N 3.4591 -7.4488 3.0116 0
M  V30 21 N 5.8001 5.7862 -3.9194 0
M  V30 22 N -5.7999 -5.7868 3.9196 0
M  V30 23 N -5.2139 -1.0628 -6.6974 0
M  V30 24 N 5.2141 1.0622 6.6966 0
M  V30 25 N 7.5851 3.9642 -2.2614 0
M  V30 26 N -7.5849 -3.9648 2.2616 0
M  V30 27 N -6.3899 1.5132 -5.4854 0
M  V30 28 N 6.3901 -1.5138 5.4856 0
M  V30 29 N 7.1461 1.2622 4.2506 0
M  V30 30 N -7.1469 -1.2628 -4.2504 0
M  V30 31 C -2.8949 6.9332 3.7906 0
M  V30 32 C 2.8951 -6.9338 -3.7914 0
M  V30 33 C -1.7349 6.5502 4.4546 0
M  V30 34 C 1.7351 -6.5508 -4.4544 0
M  V30 35 H -0.8809 6.6572 4.0556 0
M  V30 36 H 0.8801 -6.6578 -4.0554 0
M  V30 37 C -1.8739 6.0052 5.7236 0
M  V30 38 C 1.8741 -6.0058 -5.7234 0
M  V30 39 H -0.9838 5.7177 6.2432 0
M  V30 40 H 1.0841 -5.7538 -6.1854 0
M  V30 41 C -4.1279 6.2282 5.6956 0
M  V30 42 C 4.1271 -6.2288 -5.6964 0
M  V30 43 H -4.9669 6.1242 6.1306 0
M  V30 44 H 4.9661 -6.1248 -6.1304 0
M  V30 45 C -4.1239 6.7882 4.4486 0
M  V30 46 C 4.1231 -6.7888 -4.4484 0
M  V30 47 H -4.9329 7.0712 4.0396 0
M  V30 48 H 4.9331 -7.0718 -4.0394 0
M  V30 49 C 4.8641 -3.0468 -6.5454 0
M  V30 50 C -4.8639 3.0462 6.5456 0
M  V30 51 H 5.0691 -3.8788 -6.1364 0
M  V30 52 H -5.0699 3.8782 6.1366 0
M  V30 53 C 5.4611 -1.9068 -6.0394 0
M  V30 54 C -5.4609 1.9062 6.0396 0
M  V30 55 H 6.0921 -1.9748 -5.3334 0
M  V30 56 H -6.0929 1.9742 5.3336 0
M  V30 57 C 5.1411 -0.6568 -6.5624 0
M  V30 58 C -5.1419 0.6562 6.5626 0
M  V30 59 C 4.2531 -0.6568 -7.6414 0
M  V30 60 C -4.2539 0.6562 7.6406 0
M  V30 61 H 3.9991 0.1612 -8.0504 0
M  V30 62 H -3.9989 -0.1618 8.0506 0
M  V30 63 C 3.7521 -1.8458 -8.1004 0
M  V30 64 C -3.7529 1.8452 8.1006 0
M  V30 65 H 3.1731 -1.8168 -8.8534 0
M  V30 66 H -3.1729 1.8162 8.8536 0
M  V30 67 C -0.3939 7.6612 -3.6244 0
M  V30 68 C 0.3941 -7.6618 3.6246 0
M  V30 69 H -1.1299 7.4152 -4.1744 0
M  V30 70 H 1.1301 -7.4158 4.1736 0
M  V30 71 C 0.8341 7.1262 -3.9024 0
M  V30 72 C -0.8339 -7.1268 3.9026 0
M  V30 73 H 0.9341 6.4942 -4.6064 0
M  V30 74 H -0.9339 -6.4948 4.6066 0
M  V30 75 C 1.9361 7.5092 -3.1464 0
M  V30 76 C -1.9359 -7.5098 3.1466 0
M  V30 77 C 1.7331 8.4212 -2.1134 0
M  V30 78 C -1.7329 -8.4218 2.1136 0
M  V30 79 H 2.4551 8.6962 -1.5624 0
M  V30 80 H -2.4559 -8.6968 1.5626 0
M  V30 81 C 0.4681 8.9102 -1.9024 0
M  V30 82 C -0.4679 -8.9108 1.9026 0
M  V30 83 H 0.3441 9.5632 -1.2244 0
M  V30 84 H -0.3439 -9.5638 1.2246 0
M  V30 85 C 2.1911 -6.5958 -9.0674 0
M  V30 86 C -2.1919 6.5952 9.0676 0
M  V30 87 H 1.7541 -6.3968 -9.9214 0
M  V30 88 H -1.7549 6.3962 9.9216 0
M  V30 89 H 1.5231 -6.9108 -8.4234 0
M  V30 90 H -1.5239 6.9102 8.4236 0
M  V30 91 H 2.8701 -7.2908 -9.2004 0
M  V30 92 H -2.8699 7.2902 9.2006 0
M  V30 93 C 3.1751 -4.1028 -10.2544 0
M  V30 94 C -3.1759 4.1022 10.2546 0
M  V30 95 H 4.0661 -3.7338 -10.4244 0
M  V30 96 H -4.0669 3.7332 10.4246 0
M  V30 97 H 2.5041 -3.3958 -10.3494 0
M  V30 98 H -2.5039 3.3952 10.3496 0
M  V30 99 C 4.9591 -5.7488 -8.7954 0
M  V30 100 C -4.9589 5.7482 8.7956 0
M  V30 101 H 5.1061 -5.7098 -9.7644 0
M  V30 102 H -5.1069 5.7092 9.7646 0
M  V30 103 H 4.9601 -6.6818 -8.5024 0
M  V30 104 H -4.9599 6.6812 8.5026 0
M  V30 105 H 5.6751 -5.2598 -8.3374 0
M  V30 106 H -5.6749 5.2592 8.3376 0
M  V30 107 C 0.1331 -4.0998 -8.8254 0
M  V30 108 C -0.1329 4.0992 8.8256 0
M  V30 109 H 0.2521 -4.6588 -9.5844 0
M  V30 110 H -0.2529 4.6582 9.5846 0
M  V30 111 C -1.0899 -3.5108 -8.6464 0
M  V30 112 C 1.0891 3.5102 8.6466 0
M  V30 113 H -1.7789 -3.6398 -9.2874 0
M  V30 114 H 1.7791 3.6392 9.2876 0
M  V30 115 C -1.3179 -2.7178 -7.5184 0
M  V30 116 C 1.3181 2.7172 7.5186 0
M  V30 117 C -0.2429 -2.5408 -6.6404 0
M  V30 118 C 0.2431 2.5402 6.6406 0
M  V30 119 H -0.3399 -2.0168 -5.8544 0
M  V30 120 H 0.3391 2.0162 5.8546 0
M  V30 121 C 0.9551 -3.1398 -6.9434 0
M  V30 122 C -0.9559 3.1392 6.9436 0
M  V30 123 H 1.6881 -2.9778 -6.3594 0
M  V30 124 H -1.6889 2.9772 6.3596 0
M  V30 125 C 5.7391 0.5822 -6.0374 0
M  V30 126 C -5.7389 -0.5828 6.0376 0
M  V30 127 C 6.6521 0.5922 -4.9904 0
M  V30 128 C -6.6519 -0.5928 4.9906 0
M  V30 129 H 6.9121 -0.2248 -4.5794 0
M  V30 130 H -6.9119 0.2242 4.5796 0
M  V30 131 C 7.1751 1.7772 -4.5514 0
M  V30 132 C -7.1749 -1.7778 4.5516 0
M  V30 133 H 7.7861 1.7472 -3.8244 0
M  V30 134 H 9.7071 0.0242 6.6386 0
M  V30 135 C 6.0141 2.9752 -6.0774 0
M  V30 136 C -6.0149 -2.9758 6.0776 0
M  V30 137 H 5.7991 3.8042 -6.4864 0
M  V30 138 H -5.7989 -3.8048 6.4866 0
M  V30 139 C 5.4081 1.8322 -6.5534 0
M  V30 140 C -5.4079 -1.8328 6.5536 0
M  V30 141 H 4.7551 1.8992 -7.2414 0
M  V30 142 H -4.7559 -1.8998 7.2416 0
M  V30 143 C -2.4609 10.0892 -4.1614 0
M  V30 144 C 2.4601 -10.0898 4.1616 0
M  V30 145 H -2.7739 9.4292 -4.8144 0
M  V30 146 H 2.7741 -9.4298 4.8146 0
M  V30 147 H -3.0139 10.8962 -4.2214 0
M  V30 148 H 3.0131 -10.8968 4.2216 0
M  V30 149 H -1.5269 10.3192 -4.3514 0
M  V30 150 H 1.5271 -10.3198 4.3516 0
M  V30 151 C -4.5149 10.1142 -2.1194 0
M  V30 152 C 4.5141 -10.1148 2.1196 0
M  V30 153 H -5.1739 9.4562 -2.4224 0
M  V30 154 H 5.1741 -9.4568 2.4226 0
M  V30 155 H -4.7049 10.3642 -1.1914 0
M  V30 156 H 4.7041 -10.3648 1.1916 0
M  V30 157 H -4.5639 10.9112 -2.6884 0
M  V30 158 H 4.5631 -10.9118 2.6886 0
M  V30 159 C -1.8429 11.0872 -1.5134 0
M  V30 160 C 1.8421 -11.0878 1.5126 0
M  V30 161 H -1.7759 11.0402 -0.5364 0
M  V30 162 H 1.7761 -11.0408 0.5366 0
M  V30 163 H -0.9539 11.2422 -1.8944 0
M  V30 164 H 0.9541 -11.2428 1.8946 0
M  V30 165 H -2.4409 11.8202 -1.7654 0
M  V30 166 H 2.4411 -11.8208 1.7656 0
M  V30 167 C -3.1819 6.2472 -2.4924 0
M  V30 168 C 3.1811 -6.2478 2.4926 0
M  V30 169 H -2.5309 6.2042 -1.8014 0
M  V30 170 H 2.5301 -6.2048 1.8016 0
M  V30 171 C -3.7709 5.0752 -2.8914 0
M  V30 172 C 3.7701 -5.0758 2.8916 0
M  V30 173 H -3.5669 4.2582 -2.4524 0
M  V30 174 H 3.5661 -4.2588 2.4526 0
M  V30 175 C -4.6719 5.1042 -3.9444 0
M  V30 176 C 4.6711 -5.1048 3.9446 0
M  V30 177 C -4.9379 6.3472 -4.5224 0
M  V30 178 C 4.9371 -6.3478 4.5226 0
M  V30 179 H -5.5289 6.4132 -5.2624 0
M  V30 180 H 5.5281 -6.4138 5.2626 0
M  V30 181 C -4.3399 7.4802 -4.0064 0
M  V30 182 C 4.3391 -7.4808 4.0056 0
M  V30 183 H -4.5679 8.3232 -4.3814 0
M  V30 184 H 4.5671 -8.3238 4.3816 0
M  V30 185 C 3.2821 6.9522 -3.4304 0
M  V30 186 C -3.2829 -6.9528 3.4306 0
M  V30 187 C 3.6521 6.5212 -4.6974 0
M  V30 188 C -3.6519 -6.5218 4.6976 0
M  V30 189 H 3.0541 6.6142 -5.4304 0
M  V30 190 H -3.0539 -6.6148 5.4306 0
M  V30 191 C 4.8941 5.9572 -4.8784 0
M  V30 192 C -4.8939 -5.9578 4.8786 0
M  V30 193 H 5.1211 5.6672 -5.7534 0
M  V30 194 H -5.1209 -5.6678 5.7536 0
M  V30 195 C 5.4581 6.2792 -2.7284 0
M  V30 196 C -5.4579 -6.2798 2.7286 0
M  V30 197 H 6.1121 6.2552 -2.0404 0
M  V30 198 H -6.1129 -6.2558 2.0406 0
M  V30 199 C 4.2281 6.8172 -2.4174 0
M  V30 200 C -4.2279 -6.8178 2.4176 0
M  V30 201 H 4.0311 7.0932 -1.5304 0
M  V30 202 H -4.0309 -7.0938 1.5306 0
M  V30 203 C -2.6599 -2.1358 -7.2514 0
M  V30 204 C 2.6591 2.1352 7.2516 0
M  V30 205 C -3.7389 -2.3448 -8.0984 0
M  V30 206 C 3.7381 2.3442 8.0986 0
M  V30 207 H -3.6359 -2.8558 -8.8914 0
M  V30 208 H 3.6361 2.8552 8.8916 0
M  V30 209 C -4.9559 -1.8008 -7.7754 0
M  V30 210 C 4.9561 1.8002 7.7756 0
M  V30 211 H -5.6769 -1.9648 -8.3714 0
M  V30 212 H 5.6761 1.9642 8.3716 0
M  V30 213 C -4.1489 -0.8118 -5.9254 0
M  V30 214 C 4.1481 0.8112 5.9256 0
M  V30 215 H -4.2669 -0.2358 -5.1784 0
M  V30 216 H 4.2661 0.2352 5.1786 0
M  V30 217 C -2.8899 -1.3338 -6.1514 0
M  V30 218 C 2.8901 1.3332 6.1516 0
M  V30 219 H -2.1819 -1.1438 -5.5474 0
M  V30 220 H 2.1811 1.1432 5.5476 0
M  V30 221 C 6.4691 3.3652 -1.8394 0
M  V30 222 C -6.4699 -3.3658 1.8396 0
M  V30 223 H 5.7371 3.3002 -2.4414 0
M  V30 224 H -5.7369 -3.3008 2.4416 0
M  V30 225 C 6.3301 2.8402 -0.5924 0
M  V30 226 C -6.3299 -2.8408 0.5926 0
M  V30 227 H 5.5131 2.4282 -0.3344 0
M  V30 228 H -5.5129 -2.4288 0.3346 0
M  V30 229 C 7.3981 2.9142 0.3056 0
M  V30 230 C -7.3979 -2.9148 -0.3054 0
M  V30 231 C 8.5511 3.5422 -0.1374 0
M  V30 232 C -8.5509 -3.5428 0.1366 0
M  V30 233 H 9.3021 3.6252 0.4386 0
M  V30 234 H -9.3029 -3.6258 -0.4394 0
M  V30 235 C 8.5961 4.0382 -1.4054 0
M  V30 236 C -8.5969 -4.0388 1.4056 0
M  V30 237 H 9.3981 4.4582 -1.6944 0
M  V30 238 H -9.3979 -4.4588 1.6946 0
M  V30 239 C -5.2599 3.8542 -4.4694 0
M  V30 240 C 5.2591 -3.8548 4.4696 0
M  V30 241 C -6.0919 3.0912 -3.6874 0
M  V30 242 C 6.0921 -3.0918 3.6876 0
M  V30 243 H -6.2769 3.3292 -2.7874 0
M  V30 244 H 6.2761 -3.3298 2.7876 0
M  V30 245 C -6.6499 1.9772 -4.2584 0
M  V30 246 C 6.6501 -1.9778 4.2586 0
M  V30 247 H -7.2769 1.4892 -3.7364 0
M  V30 248 H 7.2761 -1.4898 3.7366 0
M  V30 249 C -5.5869 2.2542 -6.2294 0
M  V30 250 C 5.5861 -2.2548 6.2296 0
M  V30 251 H -5.4009 1.9732 -7.1174 0
M  V30 252 H 5.4001 -1.9738 7.1166 0
M  V30 253 C -5.0099 3.4162 -5.7654 0
M  V30 254 C 5.0101 -3.4168 5.7656 0
M  V30 255 H -4.4409 3.9222 -6.3344 0
M  V30 256 H 4.4411 -3.9228 6.3346 0
M  V30 257 C 8.1861 2.0062 3.8496 0
M  V30 258 C -8.1859 -2.0068 -3.8504 0
M  V30 259 H 8.8981 2.1452 4.4616 0
M  V30 260 H -8.8989 -2.1458 -4.4614 0
M  V30 261 C 8.2791 2.5792 2.6106 0
M  V30 262 C -8.2789 -2.5798 -2.6104 0
M  V30 263 H 9.0241 3.1322 2.4016 0
M  V30 264 H -9.0239 -3.1328 -2.4014 0
M  V30 265 C 7.2931 2.3572 1.6606 0
M  V30 266 C -7.2929 -2.3578 -1.6604 0
M  V30 267 C 6.2261 1.5522 2.0486 0
M  V30 268 C -6.2259 -1.5528 -2.0484 0
M  V30 269 H 5.5281 1.3422 1.4386 0
M  V30 270 H -5.5279 -1.3428 -1.4384 0
M  V30 271 C 6.2061 1.0722 3.3216 0
M  V30 272 C -6.2069 -1.0728 -3.3214 0
M  V30 273 H 5.4491 0.5562 3.5756 0
M  V30 274 H -5.4499 -0.5568 -3.5754 0
M  V30 275 C 8.5841 6.4822 -3.5694 0
M  V30 276 C -8.5849 -6.4828 3.5696 0
M  V30 277 H 7.8921 7.1282 -3.3154 0
M  V30 278 H -7.8919 -7.1288 3.3156 0
M  V30 279 H 9.1381 6.2732 -2.7894 0
M  V30 280 H -9.1389 -6.2738 2.7896 0
M  V30 281 H 9.1471 6.8692 -4.2744 0
M  V30 282 H -9.1469 -6.8698 4.2746 0
M  V30 283 C 7.9771 5.6932 -6.1494 0
M  V30 284 C -7.9769 -5.6938 6.1496 0
M  V30 285 H 7.6271 5.0882 -6.8364 0
M  V30 286 H -7.6269 -5.0888 6.8366 0
M  V30 287 H 7.4911 6.5422 -6.1824 0
M  V30 288 H -7.4919 -6.5428 6.1826 0
M  V30 289 H 8.9301 5.8532 -6.3094 0
M  V30 290 H -8.9299 -5.8538 6.3096 0
M  V30 291 C 9.6231 4.0252 -4.5514 0
M  V30 292 C -9.6239 -4.0258 4.5516 0
M  V30 293 H 9.5461 3.1172 -4.9154 0
M  V30 294 H -9.5459 -3.1178 4.9156 0
M  V30 295 C -9.1019 0.3892 -5.9864 0
M  V30 296 C 9.1011 -0.3898 5.9866 0
M  V30 297 H -9.0939 1.3592 -6.1174 0
M  V30 298 H 9.0941 -1.3598 6.1176 0
M  V30 299 C -7.3259 0.4182 -8.1634 0
M  V30 300 C 7.3261 -0.4188 8.1636 0
M  V30 301 H -6.4939 0.2332 -8.6464 0
M  V30 302 H 6.4941 -0.2338 8.6466 0
M  V30 303 H -8.0779 0.0052 -8.6344 0
M  V30 304 H 8.0781 -0.0058 8.6346 0
M  V30 305 H -7.4649 1.3882 -8.1134 0
M  V30 306 H 7.4651 -1.3888 8.1136 0
M  V30 307 C -8.0299 -2.1258 -7.0884 0
M  V30 308 C 8.0301 2.1252 7.0886 0
M  V30 309 H -7.3069 -2.7378 -7.3414 0
M  V30 310 H 7.3071 2.7372 7.3416 0
M  V30 311 H -8.6089 -2.5578 -6.4274 0
M  V30 312 H 8.6091 2.5572 6.4276 0
M  V30 313 H -8.5559 -1.8968 -7.8844 0
M  V30 314 H 8.5551 1.8962 7.8846 0
M  V30 315 H 0.7437 -8.8025 -0.1483 0
M  V30 316 N 2.7991 -8.4958 0.1346 0
M  V30 317 H -2.9899 4.8182 10.8976 0
M  V30 318 C 2.8301 -7.4808 -2.4334 0
M  V30 319 H -7.8613 -1.7438 3.7315 0
M  V30 320 C -1.6639 7.9732 1.8756 0
M  V30 321 H 9.4071 -0.1828 5.0796 0
M  V30 322 H 4.6575 -7.8878 0.4119 0
M  V30 323 H -9.4079 0.1822 -5.0794 0
M  V30 324 C 3.8211 -7.9508 -0.2524 0
M  V30 325 H -9.7069 -0.0248 -6.6384 0
M  V30 326 H -0.7426 8.8781 0.2242 0
M  V30 327 H -10.1049 -3.9938 3.6986 0
M  V30 328 H -4.8614 6.9840 1.8499 0
M  V30 329 H 10.1051 3.9932 -3.6984 0
M  V30 330 C 1.6581 -8.4568 -0.5834 0
M  V30 331 H -10.1139 -4.5898 5.1836 0
M  V30 332 H 2.9891 -4.8188 -10.8974 0
M  V30 333 H 10.1141 4.5892 -5.1844 0
M  V30 334 H -4.6972 7.9723 -0.3610 0
M  V30 335 N -2.6919 8.4432 -0.2554 0
M  V30 336 C -1.6579 8.4562 0.5836 0
M  V30 337 C -2.8399 7.4222 2.3816 0
M  V30 338 C 1.6631 -7.9738 -1.8754 0
M  V30 339 C -3.9339 7.4092 1.5276 0
M  V30 340 C 3.9331 -7.4098 -1.5274 0
M  V30 341 H -0.7813 8.0207 2.4787 0
M  V30 342 H 4.8453 -6.9400 -1.8309 0
M  V30 343 C -3.8209 7.9502 0.2526 0
M  V30 344 H 0.7601 -7.9802 -2.4494 0
M  V30 END ATOM
M  V30 BEGIN BOND
M  V30 1 9 93 1
M  V30 2 9 85 1
M  V30 3 9 99 1
M  V30 4 9 15 1
M  V30 5 9 11 1
M  V30 6 9 10 1
M  V30 7 9 100 2
M  V30 8 9 86 2
M  V30 9 9 16 2
M  V30 10 9 94 2
M  V30 11 9 9 2
M  V30 12 9 12 2
M  V30 13 9 143 3
M  V30 14 9 19 3
M  V30 15 9 13 3
M  V30 16 9 151 3
M  V30 17 9 159 3
M  V30 18 9 335 3
M  V30 19 9 160 4
M  V30 20 9 152 4
M  V30 21 9 14 4
M  V30 22 9 20 4
M  V30 23 9 144 4
M  V30 24 9 316 4
M  V30 25 9 283 5
M  V30 26 9 17 5
M  V30 27 9 291 5
M  V30 28 9 21 5
M  V30 29 9 275 5
M  V30 30 9 25 5
M  V30 31 9 26 6
M  V30 32 9 276 6
M  V30 33 9 22 6
M  V30 34 9 292 6
M  V30 35 9 18 6
M  V30 36 9 284 6
M  V30 37 9 299 7
M  V30 38 9 307 7
M  V30 39 9 23 7
M  V30 40 9 295 7
M  V30 41 9 27 7
M  V30 42 9 30 7
M  V30 43 9 29 8
M  V30 44 9 28 8
M  V30 45 9 296 8
M  V30 46 9 24 8
M  V30 47 9 308 8
M  V30 48 9 300 8
M  V30 49 1 9 41
M  V30 50 2 9 37
M  V30 51 1 10 38
M  V30 52 1 10 42
M  V30 53 1 11 63
M  V30 54 1 11 49
M  V30 55 1 12 50
M  V30 56 1 12 64
M  V30 57 1 13 67
M  V30 58 1 13 81
M  V30 59 1 14 82
M  V30 60 1 14 68
M  V30 61 1 15 107
M  V30 62 1 15 121
M  V30 63 1 16 108
M  V30 64 1 16 122
M  V30 65 1 17 135
M  V30 66 1 17 131
M  V30 67 2 18 132
M  V30 68 1 18 136
M  V30 69 1 19 181
M  V30 70 1 19 167
M  V30 71 1 20 168
M  V30 72 1 20 182
M  V30 73 1 21 191
M  V30 74 1 21 195
M  V30 75 1 22 196
M  V30 76 1 22 192
M  V30 77 1 23 209
M  V30 78 1 23 213
M  V30 79 1 24 214
M  V30 80 1 24 210
M  V30 81 1 25 221
M  V30 82 1 25 235
M  V30 83 1 26 236
M  V30 84 1 26 222
M  V30 85 1 27 249
M  V30 86 1 27 245
M  V30 87 1 28 246
M  V30 88 1 28 250
M  V30 89 1 29 271
M  V30 90 1 29 257
M  V30 91 1 30 258
M  V30 92 1 30 272
M  V30 93 1 31 337
M  V30 94 1 31 45
M  V30 95 2 31 33
M  V30 96 2 32 34
M  V30 97 1 32 46
M  V30 98 1 32 318
M  V30 99 1 33 35
M  V30 100 1 33 37
M  V30 101 1 34 38
M  V30 102 1 34 36
M  V30 103 1 37 39
M  V30 104 1 38 40
M  V30 105 2 41 45
M  V30 106 1 41 43
M  V30 107 1 42 44
M  V30 108 2 42 46
M  V30 109 1 45 47
M  V30 110 1 46 48
M  V30 111 1 49 51
M  V30 112 1 49 53
M  V30 113 1 50 54
M  V30 114 1 50 52
M  V30 115 2 53 57
M  V30 116 1 53 55
M  V30 117 1 54 56
M  V30 118 2 54 58
M  V30 119 1 57 59
M  V30 120 1 57 125
M  V30 121 1 58 126
M  V30 122 1 58 60
M  V30 123 2 59 63
M  V30 124 1 59 61
M  V30 125 1 60 62
M  V30 126 2 60 64
M  V30 127 1 63 65
M  V30 128 1 64 66
M  V30 129 1 67 69
M  V30 130 1 67 71
M  V30 131 1 68 72
M  V30 132 1 68 70
M  V30 133 1 71 73
M  V30 134 2 71 75
M  V30 135 2 72 76
M  V30 136 1 72 74
M  V30 137 1 75 185
M  V30 138 1 75 77
M  V30 139 1 76 78
M  V30 140 1 76 186
M  V30 141 2 77 81
M  V30 142 1 77 79
M  V30 143 1 78 80
M  V30 144 2 78 82
M  V30 145 1 81 83
M  V30 146 1 82 84
M  V30 147 1 85 87
M  V30 148 1 85 91
M  V30 149 1 85 89
M  V30 150 1 86 92
M  V30 151 1 86 88
M  V30 152 1 86 90
M  V30 153 1 93 332
M  V30 154 1 93 95
M  V30 155 1 93 97
M  V30 156 1 94 98
M  V30 157 1 94 96
M  V30 158 1 94 317
M  V30 159 1 99 101
M  V30 160 1 99 103
M  V30 161 1 99 105
M  V30 162 1 100 102
M  V30 163 1 100 106
M  V30 164 1 100 104
M  V30 165 1 107 109
M  V30 166 1 107 111
M  V30 167 1 108 112
M  V30 168 1 108 110
M  V30 169 1 111 113
M  V30 170 2 111 115
M  V30 171 1 112 114
M  V30 172 2 112 116
M  V30 173 1 115 203
M  V30 174 1 115 117
M  V30 175 1 116 118
M  V30 176 1 116 204
M  V30 177 2 117 121
M  V30 178 1 117 119
M  V30 179 1 118 120
M  V30 180 2 118 122
M  V30 181 1 121 123
M  V30 182 1 122 124
M  V30 183 1 125 139
M  V30 184 2 125 127
M  V30 185 2 126 128
M  V30 186 1 126 140
M  V30 187 1 127 129
M  V30 188 1 127 131
M  V30 189 1 128 132
M  V30 190 1 128 130
M  V30 191 1 131 133
M  V30 192 1 132 319
M  V30 193 2 135 139
M  V30 194 1 135 137
M  V30 195 1 136 138
M  V30 196 2 136 140
M  V30 197 1 139 141
M  V30 198 1 140 142
M  V30 199 1 143 145
M  V30 200 1 143 149
M  V30 201 1 143 147
M  V30 202 1 144 148
M  V30 203 1 144 150
M  V30 204 1 144 146
M  V30 205 1 151 157
M  V30 206 1 151 153
M  V30 207 1 151 155
M  V30 208 1 152 156
M  V30 209 1 152 154
M  V30 210 1 152 158
M  V30 211 1 159 163
M  V30 212 1 159 165
M  V30 213 1 159 161
M  V30 214 1 160 162
M  V30 215 1 160 166
M  V30 216 1 160 164
M  V30 217 1 167 171
M  V30 218 1 167 169
M  V30 219 1 168 170
M  V30 220 1 168 172
M  V30 221 2 171 175
M  V30 222 1 171 173
M  V30 223 1 172 174
M  V30 224 2 172 176
M  V30 225 1 175 177
M  V30 226 1 175 239
M  V30 227 1 176 240
M  V30 228 1 176 178
M  V30 229 1 177 179
M  V30 230 2 177 181
M  V30 231 2 178 182
M  V30 232 1 178 180
M  V30 233 1 181 183
M  V30 234 1 182 184
M  V30 235 2 185 187
M  V30 236 1 185 199
M  V30 237 1 186 200
M  V30 238 2 186 188
M  V30 239 1 187 189
M  V30 240 1 187 191
M  V30 241 1 188 192
M  V30 242 1 188 190
M  V30 243 1 191 193
M  V30 244 1 192 194
M  V30 245 2 195 199
M  V30 246 1 195 197
M  V30 247 1 196 198
M  V30 248 2 196 200
M  V30 249 1 199 201
M  V30 250 1 200 202
M  V30 251 2 203 205
M  V30 252 1 203 217
M  V30 253 1 204 218
M  V30 254 2 204 206
M  V30 255 1 205 207
M  V30 256 1 205 209
M  V30 257 1 206 208
M  V30 258 1 206 210
M  V30 259 1 209 211
M  V30 260 1 210 212
M  V30 261 2 213 217
M  V30 262 1 213 215
M  V30 263 1 214 216
M  V30 264 2 214 218
M  V30 265 1 217 219
M  V30 266 1 218 220
M  V30 267 1 221 223
M  V30 268 1 221 225
M  V30 269 1 222 226
M  V30 270 1 222 224
M  V30 271 1 225 227
M  V30 272 2 225 229
M  V30 273 2 226 230
M  V30 274 1 226 228
M  V30 275 1 229 231
M  V30 276 1 229 265
M  V30 277 1 230 266
M  V30 278 1 230 232
M  V30 279 2 231 235
M  V30 280 1 231 233
M  V30 281 1 232 234
M  V30 282 2 232 236
M  V30 283 1 235 237
M  V30 284 1 236 238
M  V30 285 1 239 253
M  V30 286 2 239 241
M  V30 287 2 240 242
M  V30 288 1 240 254
M  V30 289 1 241 245
M  V30 290 1 241 243
M  V30 291 1 242 244
M  V30 292 1 242 246
M  V30 293 1 245 247
M  V30 294 1 246 248
M  V30 295 1 249 251
M  V30 296 2 249 253
M  V30 297 2 250 254
M  V30 298 1 250 252
M  V30 299 1 253 255
M  V30 300 1 254 256
M  V30 301 1 257 261
M  V30 302 1 257 259
M  V30 303 1 258 260
M  V30 304 1 258 262
M  V30 305 2 261 265
M  V30 306 1 261 263
M  V30 307 1 262 264
M  V30 308 2 262 266
M  V30 309 1 265 267
M  V30 310 1 266 268
M  V30 311 1 267 269
M  V30 312 2 267 271
M  V30 313 2 268 272
M  V30 314 1 268 270
M  V30 315 1 271 273
M  V30 316 1 272 274
M  V30 317 1 275 281
M  V30 318 1 275 277
M  V30 319 1 275 279
M  V30 320 1 276 280
M  V30 321 1 276 278
M  V30 322 1 276 282
M  V30 323 1 283 285
M  V30 324 1 283 289
M  V30 325 1 283 287
M  V30 326 1 284 288
M  V30 327 1 284 290
M  V30 328 1 284 286
M  V30 329 1 291 333
M  V30 330 1 291 293
M  V30 331 1 291 329
M  V30 332 1 292 327
M  V30 333 1 292 294
M  V30 334 1 292 331
M  V30 335 1 295 325
M  V30 336 1 295 297
M  V30 337 1 295 323
M  V30 338 1 296 321
M  V30 339 1 296 298
M  V30 340 1 296 134
M  V30 341 1 299 301
M  V30 342 1 299 303
M  V30 343 1 299 305
M  V30 344 1 300 302
M  V30 345 1 300 306
M  V30 346 1 300 304
M  V30 347 1 307 313
M  V30 348 1 307 309
M  V30 349 1 307 311
M  V30 350 1 308 312
M  V30 351 1 308 310
M  V30 352 1 308 314
M  V30 353 1 316 330
M  V30 354 2 316 324
M  V30 355 1 318 338
M  V30 356 2 318 340
M  V30 357 1 320 341
M  V30 358 1 324 322
M  V30 359 1 330 315
M  V30 360 2 330 338
M  V30 361 1 335 336
M  V30 362 2 335 343
M  V30 363 1 336 326
M  V30 364 2 336 320
M  V30 365 2 337 339
M  V30 366 1 337 320
M  V30 367 1 338 344
M  V30 368 1 339 343
M  V30 369 1 339 328
M  V30 370 1 340 324
M  V30 371 1 340 342
M  V30 372 1 343 334
M  V30 END BOND
M  V30 END CTAB
M  END

$$$$
