
     RDKit          3D

  0  0  0  0  0  0  0  0  0  0999 V3000
M  V30 BEGIN CTAB
M  V30 COUNTS 11 11 0 0 0
M  V30 BEGIN ATOM
M  V30 1 H -0.8809 6.6572 4.0556 0
M  V30 2 C -1.7349 6.5502 4.4546 0
M  V30 3 N -3.0449 5.8152 6.3406 0
M  V30 4 C -4.1279 6.2282 5.6956 0
M  V30 5 C -4.1239 6.7882 4.4486 0
M  V30 6 H -4.9669 6.1242 6.1306 0
M  V30 7 C -2.8949 6.9332 3.7906 0
M  V30 8 H -0.9838 5.7177 6.2432 0
M  V30 9 C -1.8739 6.0052 5.7236 0
M  V30 10 H -4.9329 7.0712 4.0396 0
M  V30 11 Br -2.8399 7.4222 2.3816 0
M  V30 END ATOM
M  V30 BEGIN BOND
M  V30 1 1 3 4
M  V30 2 1 3 9
M  V30 3 1 7 5
M  V30 4 1 7 2
M  V30 5 1 2 1
M  V30 6 1 2 9
M  V30 7 1 9 8
M  V30 8 1 4 5
M  V30 9 1 4 6
M  V30 10 1 5 10
M  V30 11 1 7 11
M  V30 END BOND
M  V30 END CTAB
M  END

$$$$
