854
Blob!
B 0.046417 0.000005 0.958477 0
B -0.059265 0.054289 0.956228 0
B 0.009057 -0.103285 0.953982 0
B 0.074594 0.097310 0.951735 0
B -0.136831 -0.024197 0.949486 0
B 0.148865 -0.094696 1.088663 0
B -0.036843 0.137034 0.803906 0
B -0.070216 -0.135180 0.801995 0
B 0.178947 0.065359 0.940499 0
B -0.186070 0.076809 0.938249 0
B 0.076251 -0.162955 0.796261 0
B 0.056312 0.179559 0.794347 0
B -0.169653 -0.098309 0.792435 0
B 0.303605 -0.066742 1.206738 0
B -0.121317 0.172556 0.788611 0
B -0.023099 -0.178206 0.648635 0
B 0.201996 0.170254 0.922520 0
B -0.271678 0.011240 0.920270 0
B 0.168471 -0.167653 0.780967 0
B -0.011272 0.243620 0.779052 0
B -0.132020 -0.158194 0.640753 0
B 0.342452 0.046084 1.047338 0
B -0.214656 0.149352 0.773316 0
B 0.048326 -0.214836 0.636026 0
B 0.135495 0.236473 0.769494 0
B -0.264740 -0.084453 0.767581 0
B 0.347199 -0.160413 1.034425 0
B -0.111278 0.265881 0.763757 0
B -0.081835 -0.227503 0.628143 0
B 0.356556 0.187406 1.026675 0
B -0.344402 0.090786 0.891054 0
B 0.166423 -0.258832 0.756114 0
B 0.052903 0.307872 0.754199 0
B -0.206620 -0.160010 0.620261 0
B 0.601466 -0.049823 1.408837 0
B -0.221307 0.239224 0.748462 0
B 0.001323 -0.272277 0.615534 0
B 0.264203 0.291260 0.875327 0
B -0.396511 -0.036743 0.873076 0
B 0.321082 -0.243690 0.870835 0
B -0.051215 0.281495 0.609226 0
B -0.154166 -0.244972 0.607652 0
B 0.522687 0.143256 1.122107 0
B -0.319378 0.163901 0.733168 0
B 0.103991 -0.280510 0.602925 0
B 0.138247 0.339620 0.729346 0
B -0.276019 -0.130804 0.599769 0
B 0.859605 -0.265020 1.744167 0
B -0.157534 0.268798 0.596616 0
B -0.066047 -0.307540 0.595042 0
B 0.369047 0.262164 0.846112 0
B -0.453365 0.056506 0.843860 0
B 0.254185 -0.298630 0.715967 0
B 0.011882 0.325989 0.588735 0
B -0.230957 -0.234353 0.587160 0
B 0.895703 0.045808 1.582753 0
B -0.257944 0.213125 0.584005 0
B 0.046607 -0.334093 0.582433 0
B 0.233884 0.339686 0.704494 0
B -0.405087 -0.093204 0.702580 0
B 0.492369 -0.278956 0.946610 0
B -0.107388 0.331011 0.576124 0
B -0.114526 -0.251075 0.452253 0
B 0.601907 0.255371 1.060821 0
B -0.406667 0.144035 0.693020 0
B 0.168196 -0.316275 0.569823 0
B 0.090235 0.349250 0.568244 0
B -0.304530 -0.197910 0.566667 0
B 1.128307 -0.188240 1.767937 0
B -0.226786 0.289897 0.563514 0
B -0.022663 -0.290723 0.442328 0
B 0.388431 0.362881 0.798919 0
B -0.534909 -0.005214 0.796667 0
B 0.340637 -0.305995 0.675820 0
B -0.036905 0.378060 0.555633 0
B -0.180689 -0.240491 0.436123 0
B 1.101767 0.206006 1.610883 0
B -0.328277 0.204352 0.550903 0
B 0.104619 -0.374577 0.549332 0
B 0.214524 0.423112 0.664346 0
B -0.446495 -0.168007 0.662432 0
B 1.148309 -0.460940 1.703829 0
B -0.172063 0.358526 0.543022 0
B -0.091259 -0.301189 0.426198 0
B 0.640180 0.379402 0.999536 0
B -0.479633 0.100554 0.652872 0
B 0.236810 -0.329952 0.536722 0
B 0.048502 0.405327 0.535142 0
B -0.311127 -0.267444 0.533566 0
B 1.377024 -0.043480 1.777614 0
B -0.296539 0.289391 0.530412 0
B 0.018327 -0.327214 0.416273 0
B 0.377652 0.461650 0.751725 0
B -0.593109 -0.085695 0.749474 0
B 0.497535 -0.339016 0.747234 0
B -0.097151 0.412968 0.522531 0
B -0.163940 -0.292670 0.410068 0
B 1.098837 0.362423 1.403814 0
B -0.392092 0.176536 0.517801 0
B 0.170610 -0.396758 0.516230 0
B 0.142814 0.409582 0.514651 0
B -0.383623 -0.206416 0.513074 0
B 1.507346 -0.381635 1.818021 0
B -0.189856 0.289028 0.401381 0
B -0.055477 -0.342777 0.400143 0
B 0.569463 0.449994 0.830380 0
B -0.632399 0.046190 0.720258 0
B 0.371629 -0.393942 0.610820 0
B -0.006566 0.448254 0.502040 0
B -0.235456 -0.264692 0.393938 0
B 1.788793 0.183420 1.985584 0
B -0.286468 0.213046 0.391454 0
B 0.067573 -0.351926 0.390217 0
B 0.290595 0.471953 0.599345 0
B -0.535064 -0.152260 0.597431 0
B 1.725790 -0.864477 2.058734 0
B -0.129749 0.339758 0.385251 0
B -0.134319 -0.339383 0.384012 0
B 0.953094 0.463144 1.107328 0
B -0.447588 0.133230 0.484700 0
B 0.240875 -0.401974 0.483129 0
B 0.094232 0.460706 0.481549 0
B -0.381996 -0.276991 0.479973 0
B 8.880399 -1.018807 9.032178 1
B -0.245135 0.282364 0.375325 0
B -0.010018 -0.375028 0.374087 0
B 0.473761 0.490235 0.675317 0
B -0.784633 -0.047792 0.773552 0
B 0.533204 -0.431877 0.670825 0
B -0.056189 0.375873 0.369122 0
B -0.213145 -0.316101 0.367882 0
B 8.918879 2.144141 8.794086 1
B -0.426366 0.236098 0.464208 0
B 0.155378 -0.463511 0.462637 0
B 0.199122 0.448101 0.461058 0
B -0.450875 -0.196491 0.459481 0
B 8.808906 -3.023506 8.645304 1
B -0.186210 0.342043 0.359195 0
B -0.094023 -0.379097 0.357957 0
B 0.855838 0.568185 0.935488 0
B -0.598000 0.093787 0.547724 0
B 0.378666 -0.474440 0.545819 0
B 0.034110 0.500750 0.448447 0
B -0.286857 -0.273261 0.351752 0
B 9.527005 0.185996 8.407216 1
B -0.298942 0.263313 0.349269 0
B 0.042676 -0.397165 0.348032 0
B 0.365864 0.497010 0.534345 0
B -0.713678 -0.140646 0.625872 0
B 8.248633 -5.023757 8.258427 1
B -0.112400 0.387764 0.343066 0
B -0.179524 -0.362786 0.341827 0
B 9.076154 3.516898 8.169122 1
B -0.481534 0.187861 0.431107 0
B 0.228744 -0.464966 0.429536 0
B 0.145768 0.498622 0.427956 0
B -0.445414 -0.269864 0.426379 0
B 9.666235 -1.928132 8.020343 1
B -0.243460 0.332317 0.333139 0
B -0.045073 -0.410485 0.331901 0
B 0.732098 0.641873 0.777740 0
B -0.751376 0.016400 0.596656 0
B 0.462990 -0.443098 0.505671 0
B -0.027383 0.415994 0.326936 0
B -0.261422 -0.325988 0.325697 0
B 9.927948 1.533653 7.782252 1
B -0.349199 0.232985 0.323213 0
B 0.100332 -0.408598 0.321976 0
B 0.311973 0.569950 0.494197 0
B -0.616413 -0.209983 0.492283 0
B 9.303848 -4.080230 7.633467 1
B -0.171492 0.388309 0.317010 0
B -0.136149 -0.403038 0.315771 0
B 8.957100 4.933128 7.544156 1
B -0.527452 0.128085 0.398005 0
B 0.303046 -0.451687 0.396434 0
B 0.081818 0.538902 0.394854 0
B -0.425247 -0.342807 0.393278 0
B 2.174084 -0.137454 1.558984 0
B -0.299306 0.311134 0.307084 0
B 0.010546 -0.432475 0.305846 0
B 0.516069 0.591706 0.551714 0
B -0.781795 -0.087867 0.549463 0
B 0.541971 -0.394911 0.465524 0
B -0.086410 0.427426 0.300880 0
B -0.225453 -0.374265 0.299641 0
B 10.070618 2.972471 7.157288 1
B -0.394066 0.192609 0.297158 0
B 0.204244 -0.519586 0.375942 0
B 0.200744 0.522085 0.374363 0
B -0.501633 -0.249827 0.372786 0
B 2.147796 -0.616555 1.477429 0
B -0.231281 0.377550 0.290954 0
B -0.084653 -0.435415 0.289716 0
B 1.226477 0.907772 0.990551 0
B -0.682210 0.071538 0.442576 0
B 0.375584 -0.424198 0.363332 0
B 0.007563 0.446708 0.284751 0
B -0.307872 -0.324845 0.283511 0
B 2.019404 0.142820 1.274576 0
B -0.351746 0.279262 0.281028 0
B 0.070845 -0.444281 0.279790 0
B 0.382567 0.579511 0.429196 0
B -0.674695 -0.169166 0.427282 0
B 0.612798 -0.331561 0.425376 0
B -0.148153 0.428032 0.274825 0
B -0.180193 -0.416376 0.273586 0
B 1.312161 0.587170 0.861520 0
B -0.548757 0.182390 0.344412 0
B 0.281885 -0.505983 0.342841 0
B 0.134140 0.564417 0.341261 0
B -0.480941 -0.326082 0.339685 0
B 1.924002 -0.282525 1.129775 0
B -0.289703 0.355795 0.264898 0
B -0.026765 -0.458753 0.263660 0
B 0.776474 0.754295 0.617231 0
B -0.834539 -0.024428 0.473055 0
B 0.443864 -0.383340 0.330231 0
B -0.053887 0.459197 0.258695 0
B -0.270860 -0.375552 0.257455 0
B 2.050343 0.424925 1.156923 0
B -0.398977 0.237688 0.254972 0
B 0.170017 -0.565865 0.322349 0
B 0.257234 0.532875 0.320770 0
B -0.667587 -0.266186 0.387135 0
B 0.791139 -0.299782 0.452836 0
B -0.210576 0.417685 0.248769 0
B -0.127055 -0.450859 0.247530 0
B 1.045820 0.647698 0.645894 0
B -0.586327 0.111024 0.311311 0
B 0.357832 -0.478577 0.309739 0
B 0.046829 0.468676 0.242566 0
B -0.446675 -0.399383 0.306584 0
B 1.876970 -0.022626 0.954244 0
B -0.344831 0.323627 0.238843 0
B 0.035703 -0.472183 0.237605 0
B 0.530706 0.675206 0.428112 0
B -0.848528 -0.139555 0.425862 0
B 0.505623 -0.330268 0.297129 0
B -0.118020 0.461128 0.232639 0
B -0.224755 -0.420271 0.231400 0
B 1.180593 0.415096 0.603595 0
B -0.439415 0.187619 0.228917 0
B 0.250930 -0.553523 0.289247 0
B 0.189095 0.578367 0.287668 0
B -0.530768 -0.299092 0.286092 0
B 1.099976 -0.255767 0.526765 0
B -0.271713 0.396560 0.222713 0
B -0.067607 -0.476514 0.221474 0
B 0.774724 0.637132 0.458453 0
B -0.742273 0.039671 0.337428 0
B 0.338217 -0.344790 0.217753 0
B -0.016513 0.483259 0.216510 0
B -0.314627 -0.367909 0.215270 0
B 1.521748 0.186105 0.677050 0
B -0.394903 0.281891 0.212787 0
B 0.100883 -0.475139 0.211549 0
B 0.380324 0.645559 0.324048 0
B -0.717302 -0.219337 0.322135 0
B 0.558858 -0.266430 0.264027 0
B -0.182907 0.452280 0.206584 0
B -0.170830 -0.457535 0.205344 0
B 0.906532 0.462593 0.424877 0
B -0.599280 0.165725 0.257718 0
B 0.259984 -0.415263 0.201623 0
B 0.112925 0.612750 0.254567 0
B -0.497694 -0.375920 0.252990 0
B 1.812252 -0.172161 0.733058 0
B -0.329695 0.365125 0.196657 0
B -0.003541 -0.492429 0.195419 0
B 0.607800 0.654000 0.351704 0
B -0.890825 -0.071732 0.349454 0
B 0.495199 -0.385339 0.243535 0
B -0.082618 0.487432 0.190454 0
B -0.268601 -0.415619 0.189214 0
B 1.127257 0.294376 0.442132 0
B -0.438347 0.231673 0.186731 0
B 0.166883 -0.467364 0.185493 0
B 0.244959 0.581569 0.234076 0
B -0.574004 -0.263596 0.232499 0
B 0.729969 -0.234732 0.280079 0
B -0.246649 0.432739 0.180528 0
B -0.110545 -0.486131 0.179289 0
B 0.743063 0.514479 0.322490 0
B -0.628619 0.086057 0.224617 0
B 0.319381 -0.384524 0.175567 0
B 0.024256 0.499711 0.174325 0
B -0.451948 -0.447673 0.219889 0
B 1.448697 0.056575 0.497133 0
B -0.382789 0.324125 0.170602 0
B 0.063362 -0.497985 0.169363 0
B 0.446682 0.632273 0.259047 0
B -0.757091 -0.164611 0.257134 0
B 0.552411 -0.321835 0.210434 0
B -0.149630 0.480908 0.164398 0
B -0.214696 -0.456041 0.163159 0
B 0.971569 0.398443 0.337060 0
B -0.473815 0.174275 0.160676 0
B 0.231833 -0.448910 0.159437 0
B 0.168182 0.619954 0.200974 0
B -0.543207 -0.343782 0.199397 0
B 0.902825 -0.161839 0.282039 0
B -0.307420 0.402890 0.154472 0
B -0.045507 -0.505110 0.153233 0
B 0.577846 0.526922 0.234194 0
B -0.919932 0.002124 0.273046 0
B 0.373986 -0.344191 0.149511 0
B -0.043304 0.506784 0.148269 0
B -0.394620 -0.512254 0.186788 0
B 1.180186 0.205965 0.342908 0
B -0.429432 0.274561 0.144546 0
B 0.131273 -0.492867 0.143307 0
B 0.364074 0.697089 0.218900 0
B -0.739837 -0.268251 0.216987 0
B 0.599592 -0.249119 0.177332 0
B -0.215698 0.463707 0.138343 0
B -0.154288 -0.487940 0.137103 0
B 0.803557 0.463218 0.246081 0
B -0.635469 0.141244 0.171024 0
B 0.293920 -0.420128 0.133382 0
B 0.085245 0.646198 0.167872 0
B -0.499675 -0.419154 0.166296 0
B 1.484644 -0.064813 0.375093 0
B -0.363505 0.363404 0.128417 0
B 0.028672 -0.652757 0.161568 0
B 0.509435 0.607636 0.194047 0
B -0.924599 -0.122230 0.225853 0
B 0.422239 -0.295229 0.123456 0
B -0.111990 0.503201 0.122213 0
B -0.327110 -0.567801 0.153686 0
B 0.891201 0.282065 0.216866 0
B -0.468265 0.217661 0.118491 0
B 0.198362 -0.477066 0.117252 0
B 0.223689 0.617463 0.147381 0
B -0.582350 -0.304350 0.145804 0
B 0.770563 -0.205015 0.174930 0
B -0.279025 0.436149 0.112287 0
B -0.088923 -0.510342 0.111047 0
B 0.632517 0.487540 0.169194 0
B -0.796129 0.067808 0.167280 0
B 0.351437 -0.381655 0.107326 0
B -0.001341 0.519069 0.106084 0
B -0.444410 -0.487625 0.133195 0
B 1.077184 0.097338 0.215667 0
B -0.413342 0.315214 0.102361 0
B 0.091900 -0.511875 0.101122 0
B 0.353333 0.558635 0.126890 0
B -0.774025 -0.210206 0.151986 0
B 0.462772 -0.238835 0.097400 0
B -0.179986 0.488925 0.096157 0
B -0.251087 -0.612726 0.120585 0
B 0.854411 0.402523 0.169672 0
B -0.632875 0.196721 0.117431 0
B 0.262840 -0.450872 0.091196 0
B 0.140747 0.648190 0.114279 0
B -0.541856 -0.383027 0.112703 0
B 0.938892 -0.119205 0.158436 0
B -0.337905 0.398840 0.086231 0
B -0.025746 -0.663850 0.107975 0
B 0.467579 0.472301 0.106398 0
B -0.946765 -0.046217 0.149445 0
B 0.402819 -0.334394 0.081270 0
B -0.071177 0.518862 0.080028 0
B -0.378733 -0.547322 0.100093 0
B 0.925577 0.210737 0.140458 0
B -0.455557 0.259489 0.076305 0
B 0.160683 -0.499233 0.075066 0
B 0.277980 0.605764 0.093788 0
B -0.745142 -0.314097 0.111839 0
B 0.628155 -0.224107 0.090636 0
B -0.245511 0.464219 0.070102 0
B -0.168446 -0.645748 0.087483 0
B 0.679890 0.439651 0.104193 0
B -0.658404 0.111411 0.084330 0
B 0.323004 -0.414864 0.065140 0
B 0.042069 0.524248 0.063898 0
B -0.489441 -0.455115 0.079601 0
B 1.237696 0.009232 0.144459 0
B -0.390771 0.352656 0.060176 0
B 0.049934 -0.524138 0.058936 0
B 0.403110 0.533993 0.073297 0
B -0.938288 -0.173185 0.102252 0
B 0.446682 -0.279488 0.055214 0
B -0.140616 0.507940 0.053972 0
B -0.304248 -0.596627 0.066991 0
B 0.894635 0.334306 0.093264 0
B -0.488997 0.197599 0.050250 0
B 0.227143 -0.476121 0.049010 0
B 0.195839 0.641080 0.060686 0
B -0.577576 -0.340486 0.059110 0
B 0.656016 -0.139103 0.057534 0
B -0.306862 0.429633 0.044046 0
B -0.081258 -0.665926 0.054381 0
B 0.509832 0.436236 0.052805 0
B -0.956268 0.032412 0.073037 0
B 0.377281 -0.369890 0.039084 0
B -0.028348 0.527686 0.037843 0
B -0.426360 -0.518723 0.046500 0
B 0.947930 0.134749 0.064049 0
B -0.436227 0.298715 0.034120 0
B 0.119895 -0.515006 0.032880 0
B 0.329679 0.585419 0.040195 0
B -0.774568 -0.253478 0.046839 0
B 0.481859 -0.218287 0.029158 0
B -0.207886 0.486511 0.027917 0
B -0.222797 -0.634217 0.033890 0
B 0.718925 0.384721 0.039192 0
B -0.651416 0.166531 0.030737 0
B 0.289575 -0.443065 0.022954 0
B 0.108957 0.663616 0.027585 0
B -0.528665 -0.415760 0.026008 0
B 0.956256 -0.072047 0.034834 0
B -0.362457 0.385992 0.017991 0
B 0.006526 -0.529494 0.016750 0
B 0.448298 0.501656 0.019703 0
B -0.954474 -0.095635 0.025844 0
B 0.424263 -0.317045 0.013028 0
B -0.098687 0.520395 0.011787 0
B -0.354159 -0.572198 0.013398 0
B 0.923413 0.260491 0.016855 0
B -0.473091 0.238345 0.008065 0
B 0.187846 -0.495333 0.006824 0
B 0.249102 0.625234 0.007093 0
B -0.735037 -0.355073 0.006691 0
B 0.644640 -0.193498 0.003941 0
B -0.271279 0.455075 0.001861 0
B -0.136409 -0.659098 0.000788 0
B 0.545791 0.393865 -0.000788 0
B -0.810792 0.094920 -0.002868 0
B 0.346390 -0.400863 -0.003102 0
B 0.015356 0.529560 -0.004343 0
B -0.468827 -0.482876 -0.007093 0
B 1.100885 0.064525 -0.014206 0
B -0.410880 0.334367 -0.008065 0
B 0.077101 -0.524077 -0.009306 0
B 0.377487 0.557084 -0.013398 0
B -0.933305 -0.222081 -0.021349 0
B 0.462752 -0.257639 -0.013028 0
B -0.167179 0.502530 -0.014269 0
B -0.274632 -0.614172 -0.019703 0
B 0.748724 0.324260 -0.025809 0
B -0.635739 0.219849 -0.022856 0
B 0.252075 -0.465592 -0.019232 0
B 0.163391 0.652416 -0.026008 0
B -0.680576 -0.449554 -0.033456 0
B 0.664073 -0.105711 -0.029161 0
B -0.329197 0.414407 -0.024194 0
B -0.037190 -0.527880 -0.025435 0
B 0.487777 0.462541 -0.033890 0
B -1.101172 -0.018947 -0.058113 0
B 0.396156 -0.350567 -0.029158 0
B -0.055307 0.526028 -0.030398 0
B -0.399558 -0.540145 -0.040195 0
B 0.940097 0.183034 -0.059554 0
B -0.450912 0.276050 -0.034120 0
B 0.145993 -0.508058 -0.035362 0
B 0.299174 0.601125 -0.046500 0
B -0.893290 -0.343756 -0.068543 0
B 0.491780 -0.193162 -0.039084 0
B -0.232106 0.474542 -0.040324 0
B -0.189775 -0.643596 -0.052805 0
B 0.574563 0.346321 -0.054381 0
B -0.797421 0.160980 -0.067868 0
B 0.310973 -0.426535 -0.045288 0
B 0.074701 0.666292 -0.059110 0
B -0.505058 -0.440741 -0.060686 0
B 0.955207 -0.023039 -0.088769 0
B -0.380193 0.365537 -0.050250 0
B 0.033413 -0.526232 -0.051491 0
B 0.420181 0.521516 -0.066991 0
B -1.084654 -0.164982 -0.112352 0
B 0.437637 -0.293450 -0.055214 0
B -0.124450 0.511873 -0.056454 0
B -0.322612 -0.586146 -0.073297 0
B 0.768528 0.259842 -0.090810 0
B -0.611787 0.269985 -0.076448 0
B 0.211477 -0.481864 -0.061418 0
B 0.215340 0.632702 -0.079601 0
B -0.710744 -0.389294 -0.098457 0
B 0.648731 -0.159114 -0.082755 0
B -0.291846 0.437159 -0.066380 0
B -0.101736 -0.659764 -0.085907 0
B 0.520514 0.417649 -0.087483 0
B -1.090830 0.071501 -0.145929 0
B 0.363077 -0.379173 -0.071344 0
B -0.014731 0.666558 -0.092211 0
B -0.439255 -0.501276 -0.093788 0
B 0.944215 0.103933 -0.135963 0
B -0.423011 0.309723 -0.076305 0
B 0.102660 -0.513940 -0.077547 0
B 0.344740 0.569345 -0.100093 0
B -0.910407 -0.266424 -0.144950 0
B 0.469821 -0.230977 -0.081270 0
B -0.190341 0.487495 -0.082509 0
B -0.239960 -0.619772 -0.106398 0
B 0.722080 0.357560 -0.130958 0
B -0.637888 0.184710 -0.109550 0
B 0.198387 -0.325541 -0.063819 0
B 0.100853 0.512491 -0.088713 0
B -0.647741 -0.477097 -0.138604 0
B 0.799568 -0.085699 -0.140517 0
B -0.344921 0.391375 -0.092435 0
B -0.010037 -0.521355 -0.093677 0
B 0.456601 0.479577 -0.120585 0
B -1.222581 -0.083620 -0.226170 0
B 0.407109 -0.324749 -0.097400 0
B -0.080793 0.514229 -0.098639 0
B -0.365446 -0.550787 -0.126890 0
B 0.777709 0.193106 -0.155812 0
B -0.456617 0.248420 -0.102361 0
B 0.168807 -0.491384 -0.103603 0
B 0.207345 0.476134 -0.104843 0
B -0.859054 -0.382021 -0.192144 0
B 0.491955 -0.164767 -0.107326 0
B -0.251331 0.453581 -0.108565 0
B -0.153735 -0.640253 -0.139500 0
B 0.545559 0.368078 -0.141076 0
B -0.927533 0.138393 -0.203380 0
B 0.237713 -0.293325 -0.082829 0
B 0.031305 0.516272 -0.114769 0
B -0.572615 -0.553678 -0.178752 0
B 0.935463 0.025238 -0.212372 0
B -0.390030 0.338416 -0.118491 0
B 0.058962 -0.512713 -0.119733 0
B 0.384529 0.530600 -0.153686 0
B -1.051296 -0.215336 -0.254407 0
B 0.442013 -0.264708 -0.123456 0
B -0.147037 0.493478 -0.124695 0
B -0.346370 -0.713284 -0.194047 0
B 0.736775 0.291824 -0.195959 0
B -0.610093 0.232791 -0.163142 0
B 0.167941 -0.335044 -0.094597 0
B 0.140376 0.493810 -0.130899 0
B -0.791167 -0.487447 -0.239337 0
B 0.639734 -0.122658 -0.169450 0
B -0.305900 0.411086 -0.134620 0
B -0.052096 -0.509426 -0.135863 0
B 0.485646 0.432237 -0.174178 0
B -1.479340 0.021257 -0.400213 0
B 0.371857 -0.350607 -0.139585 0
B -0.037344 0.509375 -0.140824 0
B -0.487420 -0.617175 -0.218900 0
B 0.911921 0.147838 -0.259566 0
B -0.541311 0.355360 -0.183634 0
B 0.125147 -0.493732 -0.145789 0
B 0.241056 0.448289 -0.147029 0
B -0.999669 -0.348879 -0.308646 0
B 0.466979 -0.200659 -0.149511 0
B -0.208645 0.463066 -0.150750 0
B -0.201793 -0.612383 -0.193093 0
B 0.562035 0.315022 -0.194670 0
B -0.893573 0.209951 -0.279787 0
B 0.208123 -0.305263 -0.113607 0
B 0.072225 0.500837 -0.156954 0
B -0.708694 -0.580074 -0.286531 0
B 0.777283 -0.043330 -0.245666 0
B -0.352701 0.361212 -0.160676 0
B 0.016057 -0.504194 -0.161919 0
B 0.417295 0.485715 -0.207280 0
B -1.311417 -0.157299 -0.431134 0
B 0.408918 -0.293320 -0.165641 0
B -0.103309 0.492105 -0.166880 0
B -0.394502 -0.666080 -0.259047 0
B 0.740204 0.224491 -0.260960 0
B -0.574562 0.275545 -0.216735 0
B 0.186814 -0.465035 -0.171845 0
B 0.176218 0.468697 -0.173084 0
B -0.928754 -0.471218 -0.362885 0
B 0.611672 -0.170665 -0.223044 0
B -0.264050 0.423918 -0.176806 0
B -0.116339 -0.623153 -0.226195 0
B 0.506260 0.380578 -0.227771 0
B -1.836346 0.178736 -0.668704 0
B 0.332655 -0.370117 -0.181771 0
B 0.004711 0.497166 -0.183010 0
B -0.614010 -0.657611 -0.333725 0
B 0.896124 0.070093 -0.335975 0
B -0.496213 0.387964 -0.237227 0
B 0.081644 -0.488556 -0.187974 0
B 0.269549 0.415005 -0.189214 0
B -1.125779 -0.291203 -0.447963 0
B 0.436134 -0.231790 -0.191697 0
B -0.164862 0.465065 -0.192935 0
B -0.244428 -0.576558 -0.246686 0
B 0.569120 0.259780 -0.248263 0
B -0.721083 0.233713 -0.303016 0
B 0.242370 -0.427527 -0.197901 0
B 0.109955 0.478478 -0.199140 0
B -0.840731 -0.579218 -0.417125 0
B 0.616473 -0.085836 -0.256145 0
B -0.311846 0.377212 -0.202861 0
B -0.024837 -0.488275 -0.204104 0
B 0.441803 0.435630 -0.260873 0
B -1.805912 -0.066337 -0.765219 0
B 0.371189 -0.315775 -0.207827 0
B -0.060339 0.483052 -0.209065 0
B -0.509871 -0.718168 -0.380918 0
B 0.731705 0.157339 -0.325962 0
B -0.531882 0.311519 -0.270328 0
B 0.142911 -0.463093 -0.214030 0
B 0.207194 0.437513 -0.215270 0
B -1.053276 -0.429098 -0.509249 0
B 0.452907 -0.167768 -0.217753 0
B -0.279974 0.545191 -0.278210 0
B -0.161646 -0.590430 -0.279788 0
B 0.517404 0.325799 -0.281365 0
B -1.879881 0.341470 -0.885190 0
B 0.290374 -0.382379 -0.223957 0
B 0.044121 0.477524 -0.225195 0
B -0.738303 -0.670103 -0.471365 0
B 0.866461 -0.003986 -0.412384 0
B -0.445687 0.412076 -0.290819 0
B 0.039525 -0.475554 -0.230160 0
B 0.291714 0.376889 -0.231400 0
B -1.483894 -0.255425 -0.735915 0
B 0.399925 -0.256995 -0.233883 0
B -0.121143 0.459055 -0.235121 0
B -0.339724 -0.646799 -0.364196 0
B 0.686503 0.247138 -0.366109 0
B -0.672258 0.281131 -0.368016 0
B 0.198198 -0.428676 -0.240086 0
B 0.143223 0.449375 -0.241325 0
B -1.071576 -0.614410 -0.636128 0
B 0.583027 -0.130993 -0.309739 0
B -0.340956 0.489750 -0.311311 0
B -0.062428 -0.464900 -0.246290 0
B 0.456791 0.381407 -0.314466 0
B -1.857202 0.085383 -0.988751 0
B 0.329571 -0.331004 -0.250013 0
B -0.019403 0.466031 -0.251251 0
B -0.543496 -0.645210 -0.457326 0
B 0.835374 0.108489 -0.459577 0
B -0.482746 0.339193 -0.323921 0
B 0.099690 -0.452883 -0.256216 0
B 0.232058 0.400692 -0.257455 0
B -1.395406 -0.438087 -0.818338 0
B 0.418184 -0.195553 -0.259939 0
B -0.223590 0.541234 -0.331803 0
B -0.200432 -0.549274 -0.333381 0
B 0.518016 0.269223 -0.334958 0
B -2.000884 0.537303 -1.196124 0
B 0.245978 -0.386458 -0.266142 0
B 0.079540 0.450410 -0.267381 0
B -1.048180 -0.804054 -0.777099 0
B 0.699820 -0.061222 -0.415817 0
B -0.390735 0.426293 -0.344412 0
B 0.000119 -0.454440 -0.272346 0
B 0.306372 0.334627 -0.273586 0
B -2.037359 -0.179346 -1.240945 0
B 0.358931 -0.275031 -0.276069 0
B -0.078756 0.444508 -0.277306 0
B -0.372551 -0.586000 -0.429196 0
B 0.669395 0.180149 -0.431110 0
B -0.722018 0.374741 -0.509011 0
B 0.153910 -0.421096 -0.282272 0
B 0.170652 0.413748 -0.283511 0
B -1.498731 -0.701822 -1.054764 0
B 0.540652 -0.169418 -0.363332 0
B -0.283715 0.489255 -0.364904 0
B -0.121074 -0.551407 -0.366483 0
B 0.460900 0.324225 -0.368060 0
B -2.101465 0.271749 -1.392455 0
B 0.284895 -0.337849 -0.292198 0
B 0.018102 0.440745 -0.293436 0
B -0.646334 -0.649833 -0.613420 0
B 0.795099 0.036988 -0.535986 0
B -0.519015 0.432874 -0.457870 0
B 0.058490 -0.433847 -0.298402 0
B 0.249440 0.358724 -0.299641 0
B -10.203737 -2.298325 -7.216729 1
B 0.377668 -0.216275 -0.302124 0
B -0.132130 0.413766 -0.303362 0
B -0.230846 -0.499980 -0.386974 0
B 0.614821 0.257510 -0.471258 0
B -9.744961 3.502099 -7.365512 1
B 0.200540 -0.381320 -0.308328 0
B 0.109472 0.415780 -0.309566 0
B -8.654612 -5.568035 -7.454824 1
B 0.536095 -0.091980 -0.396434 0
B -0.332465 0.429044 -0.398005 0
B -0.035089 -0.424884 -0.314531 0
B 0.312199 0.288978 -0.315771 0
B -2.490671 -0.012811 -1.860052 0
B 0.313787 -0.284498 -0.318254 0
B -0.039120 0.420813 -0.319492 0
B -0.392676 -0.517663 -0.494197 0
B 0.749715 0.136606 -0.583179 0
B -0.739728 0.465221 -0.672821 0
B 0.110807 -0.403902 -0.324458 0
B 0.190679 0.371822 -0.325697 0
B -9.374875 -3.478407 -7.841691 1
B 0.385261 -0.156712 -0.328180 0
B -0.225887 0.476293 -0.418497 0
B -0.154808 -0.502582 -0.420076 0
B 0.452544 0.265388 -0.421653 0
B -9.661222 2.071935 -7.990470 1
B 0.238072 -0.334957 -0.334384 0
B 0.050582 0.406802 -0.335622 0
B -0.732247 -0.623601 -0.792329 0
B 0.738302 -0.026718 -0.612395 0
B -0.446640 0.439909 -0.522871 0
B 0.020829 -0.405283 -0.340587 0
B 0.257735 0.312114 -0.341827 0
B -9.590273 -1.340596 -8.228559 1
B 0.331710 -0.228269 -0.344310 0
B -0.090165 0.391352 -0.345547 0
B -0.304081 -0.537039 -0.534345 0
B 0.585398 0.190092 -0.536259 0
B -8.694548 3.962913 -8.377344 1
B 0.155255 -0.365682 -0.350513 0
B 0.132162 0.373486 -0.351752 0
B -1.291893 -0.687478 -1.307541 0
B 0.484613 -0.125075 -0.450027 0
B -0.272081 0.418391 -0.451598 0
B -0.081768 -0.490879 -0.453178 0
B 0.390735 0.305848 -0.454754 0
B -9.312941 0.723346 -8.615429 1
B 0.265144 -0.283670 -0.360440 0
B -0.003887 0.387121 -0.361677 0
B -0.467049 -0.520198 -0.657337 0
B 0.693660 0.067899 -0.659588 0
B -0.555647 0.417223 -0.661828 0
B 0.070384 -0.375908 -0.366643 0
B 0.201386 0.323719 -0.367882 0
B -8.778961 -2.454530 -8.853522 1
B 0.429314 -0.217530 -0.470519 0
B -0.133093 0.353392 -0.371603 0
B -0.178017 -0.443808 -0.473669 0
B 0.429634 0.206334 -0.475246 0
B -8.584126 2.598279 -9.002302 1
B 0.190082 -0.320549 -0.376569 0
B 0.076104 0.363536 -0.377807 0
B -0.707173 -0.507828 -0.891552 0
B 0.564360 -0.067382 -0.585966 0
B -0.304522 0.354051 -0.484700 0
B -0.014569 -0.465121 -0.486280 0
B 0.254850 0.261293 -0.384012 0
B -1.934190 -0.108870 -2.052101 0
B 0.280532 -0.229369 -0.386496 0
B -0.051734 0.357317 -0.387733 0
B -0.311974 -0.458102 -0.599345 0
B 0.537458 0.126592 -0.601260 0
B -0.732716 0.410158 -0.920732 0
B 0.111479 -0.337709 -0.392699 0
B 0.145348 0.323072 -0.393938 0
B -0.937709 -0.403522 -1.143215 0
B 0.421667 -0.146905 -0.503621 0
B -0.210851 0.391590 -0.505192 0
B -0.108608 -0.429425 -0.506771 0
B 0.368637 0.242297 -0.508348 0
B -1.541472 0.249038 -1.812398 0
B 0.213568 -0.270128 -0.402625 0
B 0.024879 0.342000 -0.403863 0
B -0.516882 -0.487860 -0.843292 0
B 0.615675 0.009184 -0.735996 0
B -0.389769 0.346516 -0.628019 0
B 0.043773 -0.425845 -0.519382 0
B 0.200111 0.269236 -0.410068 0
B -1.480744 -0.284732 -1.857220 0
B 0.359644 -0.221316 -0.524112 0
B -0.090649 0.318199 -0.413788 0
B -0.227130 -0.453718 -0.639493 0
B 0.388912 0.148643 -0.528840 0
B -1.287492 0.509136 -1.772328 0
B 0.141923 -0.291873 -0.418755 0
B 0.092044 0.309551 -0.419993 0
B -0.648199 -0.388653 -0.990776 0
B 0.482621 -0.098582 -0.650967 0
B -0.237287 0.327040 -0.538293 0
B -0.045712 -0.399332 -0.539873 0
B 0.301839 0.262192 -0.541449 0
B -1.328339 0.035118 -1.814466 0
B 0.284473 -0.274773 -0.544603 0
B -0.018914 0.309032 -0.429918 0
B -0.350873 -0.433422 -0.780939 0
B 0.548362 0.082127 -0.783189 0
B -0.457184 0.308085 -0.785430 0
B 0.089950 -0.373749 -0.552484 0
B 0.145644 0.263197 -0.436123 0
B -0.743404 -0.249424 -1.146983 0
B 0.418489 -0.185832 -0.675820 0
B -0.149999 0.343917 -0.558785 0
B -0.120951 -0.352677 -0.560364 0
B 0.325319 0.177224 -0.561941 0
B -1.117730 0.276886 -1.762988 0
B 0.202307 -0.304562 -0.565095 0
B 0.044212 0.282443 -0.446049 0
B -0.401869 -0.320915 -0.810153 0
B 0.509544 -0.034571 -0.812405 0
B -0.297659 0.312288 -0.693020 0
B 0.006981 -0.353085 -0.572975 0
B 0.231652 0.263150 -0.574550 0
B -0.861520 -0.092807 -1.434546 0
B 0.278183 -0.204669 -0.577705 0
B -0.066365 0.336234 -0.579277 0
B -0.214435 -0.352287 -0.704494 0
B 0.392923 0.114014 -0.706408 0
B -0.491461 0.243025 -0.956933 0
B 0.119969 -0.309378 -0.585586 0
B 0.094061 0.241312 -0.462179 0
B -0.479552 -0.236075 -0.964683 0
B 0.442500 -0.129234 -0.841620 0
B -0.166133 0.274024 -0.591887 0
B -0.062034 -0.311397 -0.593466 0
B 0.253691 0.185969 -0.595042 0
B -0.903016 0.098904 -1.739557 0
B 0.203446 -0.231925 -0.598196 0
B 0.005175 0.240373 -0.472104 0
B -0.297944 -0.311477 -0.857347 0
B 0.425596 0.028133 -0.859598 0
B -0.280115 0.224503 -0.733168 0
B 0.044761 -0.289285 -0.606077 0
B 0.160573 0.240821 -0.607652 0
B -0.514407 -0.126457 -1.127937 0
B 0.300836 -0.164566 -0.740820 0
B -0.090142 0.264359 -0.612379 0
B -0.134280 -0.306394 -0.744642 0
B 0.302050 0.133499 -0.746555 0
B -0.525543 0.177369 -1.273883 0
B 0.127918 -0.232124 -0.618687 0
B 0.061593 0.253971 -0.620261 0
B -0.304884 -0.204664 -0.886561 0
B 0.357640 -0.054199 -0.888813 0
B -0.190228 0.235834 -0.758021 0
B -0.018741 -0.297565 -0.759937 0
B 0.174190 0.167667 -0.628143 0
B -0.439847 -0.010843 -1.165876 0
B 0.213399 -0.186024 -0.765673 0
B -0.025658 0.227674 -0.632871 0
B -0.160447 -0.220307 -0.769494 0
B 0.261765 0.052997 -0.771408 0
B -0.263356 0.158541 -0.909033 0
B 0.072464 -0.245285 -0.775231 0
B 0.090423 0.185143 -0.640753 0
B -0.306612 -0.120615 -1.052500 0
B 0.221865 -0.085240 -0.780967 0
B -0.103182 0.207027 -0.782875 0
B -0.061958 -0.216025 -0.784789 0
B 0.185814 0.113903 -0.786701 0
B -0.316091 0.061366 -1.203815 0
B 0.121189 -0.163652 -0.790526 0
B 0.016810 0.160790 -0.653363 0
B -0.165586 -0.146678 -0.933755 0
B 0.211458 -0.003520 -0.936005 0
B -0.146147 0.138430 -0.938249 0
B 0.011470 -0.161660 -0.800084 0
B 0.094678 0.119332 -0.801995 0
B -0.189309 -0.030234 -1.086077 0
B 0.128136 -0.084542 -0.947241 0
B -0.028786 0.114650 -0.807730 0
B -0.058326 -0.107850 -0.951735 0
B 0.097967 0.033946 -0.953982 0
B -0.084783 0.036665 -1.098992 0
B 0.018965 -0.042365 -0.958477 0
