785
Pore!
B 0.067207 0.000007 1.387774
B -0.076961 0.070500 1.241755
B 0.014466 -0.164966 1.523694
B 0.108004 0.140895 1.378012
B -0.198117 -0.035035 1.374756
B 0.226218 -0.143901 1.654349
B -0.056241 0.209183 1.227163
B -0.131832 -0.253801 1.505747
B 0.285813 0.104391 1.502159
B -0.241630 0.099744 1.218407
B 0.156544 -0.334546 1.634725
B 0.085961 0.274097 1.212572
B -0.288749 -0.167322 1.348725
B 0.513036 -0.112782 2.039163
B -0.185191 0.263407 1.203815
B -0.042766 -0.329936 1.200900
B 0.292469 0.246510 1.335712
B -0.352801 0.014596 1.195060
B 0.434570 -0.432462 2.014507
B -0.015228 0.329131 1.052500
B -0.244425 -0.292884 1.186307
B 0.609367 0.082002 1.863658
B -0.327672 0.227985 1.180467
B 0.089472 -0.397753 1.177555
B 0.206833 0.360976 1.174634
B -0.450587 -0.143738 1.306424
B 0.662916 -0.306281 1.975056
B -0.150336 0.359205 1.031836
B -0.134092 -0.372779 1.029257
B 0.495509 0.260441 1.426782
B -0.447239 0.117895 1.157120
B 0.283252 -0.440533 1.286907
B 0.071472 0.415935 1.018923
B -0.382542 -0.296247 1.148367
B 0.826355 -0.068452 1.935604
B -0.298986 0.323191 1.011173
B 0.002167 -0.446144 1.008596
B 0.382539 0.421713 1.267381
B -0.514907 -0.047714 1.133774
B 0.752514 -0.571134 2.040962
B -0.083919 0.461249 0.998260
B -0.252611 -0.401404 0.995679
B 0.943337 0.258547 2.025159
B -0.487531 0.250194 1.119181
B 0.170397 -0.459636 0.987934
B 0.211033 0.518430 1.113348
B -0.569781 -0.270017 1.238093
B 0.985113 -0.303715 1.998827
B -0.258130 0.440444 0.977596
B -0.094164 -0.438464 0.848360
B 0.589439 0.418727 1.351405
B -0.588738 0.073379 1.095834
B 0.432623 -0.508269 1.218577
B 0.019470 0.534156 0.964683
B -0.378439 -0.384004 0.962102
B 1.177858 0.060239 2.081336
B -0.422659 0.349220 0.956933
B 0.066448 -0.476321 0.830382
B 0.357024 0.518531 1.075410
B -0.689458 -0.158633 1.195791
B 1.068014 -0.605093 2.053325
B -0.175962 0.542384 0.944019
B -0.207435 -0.454759 0.819144
B 1.224712 0.519608 2.158475
B -0.620778 0.219870 1.057895
B 0.275600 -0.518238 0.933695
B 0.147856 0.572270 0.931107
B -0.498994 -0.324289 0.928524
B 1.358605 -0.226661 2.128789
B -0.371605 0.475016 0.923356
B -0.041048 -0.526572 0.801167
B 0.620400 0.579590 1.276027
B -0.774492 -0.007549 1.153490
B 1.117802 -1.004123 2.217707
B -0.052616 0.539005 0.792173
B -0.327272 -0.435590 0.789928
B 1.503930 0.281202 2.198883
B -0.607780 0.378342 1.019956
B 0.149156 -0.534039 0.783189
B 0.327471 0.645881 1.014124
B -0.759934 -0.285948 1.127460
B 1.460816 -0.586383 2.167519
B -0.245312 0.511155 0.774194
B -0.165292 -0.545529 0.771951
B 1.081785 0.641118 1.689029
B -0.732160 0.153495 0.996610
B 0.438436 -0.610883 0.993702
B 0.079474 0.664156 0.876867
B -0.443577 -0.381299 0.760712
B 1.815623 -0.057329 2.343806
B -0.485900 0.474188 0.869116
B 0.033195 -0.592666 0.753974
B 0.546801 0.668421 1.088418
B -0.858760 -0.124078 1.085159
B -0.138510 0.588773 0.744979
B -0.296937 -0.530099 0.742735
B -0.725929 0.326844 0.958671
B 0.279556 -0.650115 0.845880
B 0.234010 0.671129 0.843292
B -0.628593 -0.338227 0.840707
B -0.343877 0.523501 0.727000
B -0.085480 -0.528162 0.616553
B 0.939341 0.742274 1.369728
B -0.915647 0.066878 1.042858
B 0.697734 -0.739627 1.146815
B -0.009361 0.639082 0.715765
B -0.426469 -0.479423 0.713519
B -0.596330 0.443490 0.814877
B 0.122391 -0.637426 0.706781
B 0.494594 0.803264 1.020086
B -0.910679 -0.259147 1.016828
B -0.235007 0.615387 0.697785
B -0.206963 -0.522932 0.591699
B -0.923949 0.275025 1.000557
B 0.394691 -0.658663 0.791641
B 0.134348 0.656834 0.686551
B -0.625927 -0.453870 0.786469
B -0.444000 0.511431 0.679806
B -0.015436 -0.577856 0.576406
B 0.827419 0.856191 1.179435
B -0.988487 -0.060208 0.974527
B -0.101772 0.680800 0.668571
B -0.328420 -0.487060 0.566845
B -0.698631 0.386862 0.760637
B 0.221524 -0.660834 0.659588
B 0.326275 0.734245 0.755476
B -0.834761 -0.363788 0.850694
B -0.337272 0.619525 0.650592
B -0.144873 -0.584125 0.551552
B -1.122745 0.176085 1.028352
B 0.644490 -0.807497 0.928984
B 0.048631 0.713926 0.639357
B -0.519570 -0.494944 0.637110
B -0.541458 0.476925 0.632613
B 0.065756 -0.611966 0.536259
B 0.686911 0.933137 1.003233
B -1.033330 -0.203641 0.906197
B -0.173189 0.597479 0.528607
B -0.276616 -0.558993 0.526698
B -0.789027 0.307823 0.706398
B 0.374813 -0.761879 0.703824
B 0.238852 0.817027 0.701236
B -0.729841 -0.442191 0.698652
B -0.375130 0.512045 0.513312
B -0.069449 -0.632488 0.511405
B -1.087913 0.023745 0.863896
B -0.049598 0.753469 0.592163
B -0.473501 -0.590446 0.589918
B -0.632486 0.421994 0.585419
B 0.181726 -0.740074 0.583179
B 0.476227 0.870029 0.754392
B -0.940955 -0.320539 0.751470
B -0.264240 0.598319 0.488459
B -0.209782 -0.621015 0.486551
B -1.088810 0.264403 0.821595
B 0.561067 -0.836266 0.733969
B 0.116649 0.768319 0.562949
B -0.606280 -0.488744 0.560702
B -0.461180 0.479406 0.473164
B 0.016250 -0.666372 0.471258
B -1.015236 -0.114103 0.713531
B -0.133143 0.658592 0.463606
B -0.347386 -0.576679 0.461697
B -0.713751 0.348863 0.538226
B 0.291193 -0.740781 0.535986
B 0.328932 0.855473 0.613420
B -0.821961 -0.409360 0.610836
B -0.356365 0.581741 0.448311
B -0.130436 -0.670902 0.446404
B -1.161121 0.121758 0.753264
B 0.935203 -1.056253 0.904697
B 0.013698 0.809100 0.515755
B -0.557633 -0.588376 0.513509
B -0.541981 0.430295 0.433017
B 0.128318 -0.804705 0.506770
B 0.718270 1.088033 0.805817
B -1.029922 -0.258233 0.652247
B -0.228278 0.659525 0.423458
B -0.277647 -0.641567 0.421550
B -0.899176 0.298859 0.564343
B 0.461889 -0.829089 0.561768
B 0.191245 0.804696 0.486541
B -0.788055 -0.534308 0.556597
B 2.536820 -0.372513 1.489622
B -0.446384 0.548220 0.408164
B -0.041241 -0.706862 0.406256
B -1.083730 -0.031723 0.614308
B 0.916262 -0.791323 0.681690
B -0.083031 0.707545 0.398606
B -0.490595 -0.680219 0.466316
B -0.722646 0.430513 0.461818
B 0.242396 -0.806761 0.459577
B 0.476251 0.986579 0.593883
B -0.901910 -0.359618 0.523020
B -0.324463 0.643582 0.383311
B -0.195770 -0.694698 0.381403
B -1.210344 0.229184 0.642633
B 0.586333 -0.784181 0.507529
B 0.084819 0.848889 0.439347
B -0.636831 -0.569405 0.437100
B 2.260077 -0.027244 1.149015
B -0.531327 0.498655 0.368016
B 0.064667 -0.855242 0.430361
B -1.101895 -0.181225 0.553023
B 1.151376 -0.752067 0.676604
B -0.181850 0.710521 0.358458
B -0.346310 -0.647567 0.356549
B -0.795889 0.339824 0.414625
B 0.411166 -0.906987 0.473952
B 0.309846 0.947695 0.471365
B -0.869700 -0.490084 0.468781
B 2.238145 -0.520414 1.071821
B -0.418664 0.611033 0.343163
B -0.104171 -0.734229 0.341255
B 1.378563 1.133728 0.815782
B -1.263349 0.067520 0.574303
B 0.704055 -0.717738 0.453290
B -0.029909 0.875302 0.392153
B -0.569868 -0.666374 0.389907
B 2.302266 0.281560 1.024315
B -0.608479 0.434347 0.327869
B 0.182724 -0.860596 0.383168
B 0.647312 1.098742 0.551530
B -1.094961 -0.334819 0.491738
B 4.365474 -2.081198 2.062426
B -0.281830 0.696887 0.318311
B -0.263221 -0.704985 0.316401
B 1.495343 0.763057 0.700842
B -0.981962 0.271551 0.422289
B 0.470896 -0.752146 0.365190
B 0.160998 0.873606 0.362939
B -0.709568 -0.535955 0.360692
B 2.209154 -0.209866 0.893605
B -0.508004 0.562596 0.303016
B -0.006413 -0.891912 0.353952
B 0.970774 1.044564 0.561739
B -1.156823 -0.093151 0.453800
B 0.811419 -0.631405 0.399050
B -0.127301 0.751051 0.293458
B -0.486504 -0.752790 0.342714
B 1.904855 0.497440 0.747121
B -0.793955 0.419618 0.338217
B 0.302267 -0.846514 0.335975
B 0.453523 1.076732 0.433374
B -0.940546 -0.431920 0.380965
B 2.267289 -0.729078 0.869927
B -0.380045 0.666778 0.278163
B -0.170332 -0.749046 0.276254
B 1.186816 0.821722 0.515078
B -1.297646 0.177646 0.463672
B 0.578479 -0.696470 0.317996
B 0.043934 0.905101 0.315745
B -0.644348 -0.638253 0.313499
B 2.125785 0.083017 0.729482
B -0.589813 0.499422 0.262869
B 0.114764 -0.901975 0.306759
B 0.760254 1.076130 0.440899
B -1.155699 -0.251279 0.392515
B 1.022748 -0.595854 0.389602
B -0.230555 0.740999 0.253310
B -0.388867 -0.826003 0.295521
B 1.476412 0.605480 0.512202
B -0.858196 0.315656 0.291024
B 0.419907 -0.813089 0.288781
B 0.275578 1.015838 0.329309
B -0.890083 -0.563311 0.326726
B 2.115938 -0.379299 0.661011
B -0.473682 0.620786 0.238016
B -0.082424 -0.914881 0.277543
B 0.983494 0.896822 0.398599
B -1.331965 0.003075 0.395342
B 0.677383 -0.623416 0.270803
B -0.078435 0.917911 0.268552
B -0.562615 -0.730327 0.266306
B 1.858610 0.324362 0.540027
B -0.661683 0.423052 0.222721
B 0.237768 -0.892705 0.259566
B 0.555759 1.064107 0.334150
B -0.999520 -0.362407 0.293149
B 1.237728 -0.514253 0.366063
B -0.332355 0.714495 0.213163
B -0.279455 -0.883782 0.248328
B 1.163466 0.670692 0.356300
B -1.176524 0.261502 0.316638
B 0.532363 -0.760957 0.241587
B 0.121535 0.921292 0.239337
B -0.712393 -0.597593 0.237090
B 2.039756 -0.089046 0.515342
B -0.560100 0.559945 0.197868
B 0.040878 -0.930644 0.230350
B 0.777653 0.927557 0.296212
B -1.200681 -0.158727 0.293292
B 0.764781 -0.534733 0.223609
B -0.172558 0.775348 0.188310
B -0.466365 -0.809522 0.219113
B 1.423421 0.450513 0.346377
B -0.848145 0.394239 0.214616
B 0.359283 -0.864086 0.212372
B 0.414144 1.143188 0.272865
B -0.954220 -0.498699 0.238910
B 2.122904 -0.564816 0.481933
B -0.429930 0.672032 0.173015
B -0.161061 -0.924357 0.201135
B 1.076545 0.829794 0.287968
B -1.494732 0.127310 0.314069
B 0.541506 -0.588066 0.165371
B -0.002429 0.940164 0.192144
B -0.633600 -0.695214 0.189897
B 1.776837 0.160561 0.355748
B -0.636890 0.485692 0.157721
B 0.166453 -0.927134 0.183157
B 0.578961 0.915363 0.207917
B -1.181549 -0.320880 0.232007
B 0.963339 -0.497175 0.202754
B -0.277329 0.753351 0.148163
B -0.357978 -0.873572 0.171919
B 1.237097 0.582811 0.245668
B -1.037009 0.322341 0.192419
B 0.404993 -0.694719 0.140517
B 0.230624 1.062103 0.187254
B -0.887868 -0.627616 0.184671
B 2.060293 -0.261582 0.347671
B -0.520655 0.614545 0.132868
B -0.036706 -0.946460 0.153941
B 0.766160 0.773898 0.174341
B -1.370816 -0.066918 0.216380
B 0.729606 -0.605671 0.147200
B -0.109672 0.799480 0.123310
B -0.539964 -0.780325 0.142704
B 1.478326 0.336587 0.224338
B -0.825127 0.469998 0.138208
B 0.247586 -0.769235 0.115664
B 0.455490 0.992586 0.153678
B -1.006687 -0.424345 0.151095
B 1.162983 -0.414919 0.167806
B -0.378291 0.715283 0.108015
B -0.240156 -0.920652 0.124726
B 1.037852 0.671128 0.159050
B -1.639423 0.277412 0.209981
B 0.497696 -0.639236 0.100370
B 0.087574 1.091308 0.133015
B -0.697803 -0.648864 0.113489
B 1.949180 0.014539 0.227501
B -0.602112 0.543384 0.092721
B 0.090444 -0.949345 0.106748
B 0.660524 0.874985 0.120101
B -1.218458 -0.224898 0.132784
B 0.809053 -0.506223 0.100006
B -0.216666 0.782650 0.083162
B -0.433771 -0.850619 0.095511
B 1.161771 0.434128 0.121112
B -0.885696 0.357902 0.091015
B 0.349989 -0.733623 0.075516
B 0.320895 1.050454 0.099439
B -0.946399 -0.557910 0.096856
B 2.052392 -0.435194 0.180000
B -0.472822 0.661993 0.067868
B -0.133147 -1.091167 0.089108
B 0.835395 0.714802 0.086525
B -1.527345 0.051768 0.116654
B 0.581327 -0.569940 0.060222
B -0.051345 0.955771 0.068543
B -0.607868 -0.739550 0.066295
B 1.514028 0.215221 0.102298
B -0.672153 0.460269 0.052574
B 0.184739 -0.793539 0.050663
B 0.470027 0.834639 0.057306
B -1.182379 -0.386934 0.071499
B 0.872767 -0.395372 0.052812
B -0.320317 0.749632 0.043015
B -0.317645 -0.904212 0.048317
B 1.097440 0.587276 0.059826
B -1.206048 0.308319 0.056907
B 0.446187 -0.682690 0.035368
B 0.178533 1.087382 0.045199
B -0.866254 -0.681252 0.042617
B 1.812862 -0.136587 0.066037
B -0.558486 0.594749 0.027721
B 0.011819 -0.959047 0.030339
B 0.639145 0.715218 0.028091
B -1.381977 -0.138469 0.037419
B 0.653719 -0.488514 0.020074
B -0.152061 0.801841 0.018162
B -0.504929 -0.815791 0.019102
B 1.199141 0.338273 0.021888
B -0.856886 0.431703 0.014607
B 0.289439 -0.763225 0.010515
B 0.355147 0.891404 0.010113
B -1.122034 -0.542019 0.010214
B 1.193504 -0.358247 0.007296
B -0.417995 0.701194 0.002868
B -0.223516 -1.079978 0.001291
B 0.894317 0.645376 -0.001291
B -1.806850 0.211528 -0.006391
B 0.533729 -0.617664 -0.004780
B 0.031966 1.102367 -0.009040
B -0.768206 -0.791227 -0.011623
B 1.529913 0.089672 -0.019742
B -0.633097 0.515204 -0.012427
B 0.118799 -0.807515 -0.014338
B 0.538189 0.794242 -0.019102
B -1.351327 -0.321551 -0.030912
B 0.838160 -0.466649 -0.023597
B -0.257595 0.774314 -0.021985
B -0.391546 -0.875634 -0.028091
B 1.142929 0.494984 -0.039398
B -1.041702 0.360237 -0.037451
B 0.388405 -0.717399 -0.029633
B 0.232949 0.930157 -0.037080
B -1.038899 -0.686244 -0.051071
B 1.794892 -0.285721 -0.078818
B -0.507237 0.638531 -0.037280
B -0.077418 -1.098871 -0.052948
B 0.695430 0.659450 -0.048317
B -1.673358 -0.028792 -0.088310
B 0.610411 -0.540165 -0.044927
B -0.100174 0.952768 -0.055059
B -0.654704 -0.885065 -0.065862
B 1.220807 0.237688 -0.077337
B -0.816713 0.499995 -0.061800
B 0.224951 -0.782833 -0.054486
B 0.426536 0.857032 -0.066295
B -1.160023 -0.446400 -0.089009
B 0.890738 -0.349865 -0.070791
B -0.357636 0.731189 -0.062133
B -0.310960 -1.054576 -0.086525
B 0.941461 0.567472 -0.089108
B -2.056949 0.415247 -0.175065
B 0.479157 -0.657220 -0.069781
B 0.106502 0.949941 -0.084274
B -0.827572 -0.722185 -0.099439
B 1.525650 -0.036797 -0.141782
B -0.585814 0.563231 -0.077427
B 0.060519 -0.953137 -0.093264
B 0.599057 0.743532 -0.095511
B -1.507356 -0.229278 -0.156137
B 0.674325 -0.452157 -0.085075
B -0.225410 0.927129 -0.102252
B -0.528623 -0.960442 -0.120101
B 1.173158 0.396650 -0.138622
B -1.002455 0.442390 -0.125266
B 0.325851 -0.742472 -0.094634
B 0.307013 0.902051 -0.113489
B -1.084951 -0.594257 -0.150294
B 1.201079 -0.294587 -0.153214
B -0.449686 0.673589 -0.102280
B -0.166702 -1.081069 -0.140765
B 0.742103 0.595448 -0.124726
B -2.082750 0.136519 -0.278625
B 0.559441 -0.584243 -0.109929
B -0.021002 0.950320 -0.131467
B -0.719750 -0.821376 -0.153678
B 1.367125 0.150484 -0.196860
B -0.766177 0.560985 -0.138208
B 0.158182 -0.791897 -0.119487
B 0.491501 0.811723 -0.142704
B -1.318174 -0.385754 -0.209873
B 0.850964 -0.418358 -0.147200
B -0.293284 0.751148 -0.127133
B -0.393191 -1.015540 -0.174341
B 0.975531 0.483064 -0.176924
B -1.452558 0.420611 -0.249460
B 0.418982 -0.687522 -0.134782
B 0.182670 0.928249 -0.160682
B -0.988776 -0.728289 -0.211579
B 1.501191 -0.160900 -0.263822
B -0.531466 0.603043 -0.142427
B -0.018180 -0.944305 -0.169672
B 0.650982 0.683739 -0.171919
B -1.925375 -0.131689 -0.356183
B 0.627288 -0.500385 -0.150077
B -0.146336 0.931397 -0.178660
B -0.598809 -0.902503 -0.207917
B 1.187174 0.294776 -0.237847
B -0.950523 0.517126 -0.213081
B 0.260103 -0.757141 -0.159635
B 0.375554 0.862398 -0.189897
B -1.243820 -0.553126 -0.278204
B 1.024088 -0.342991 -0.223416
B -0.387258 0.698892 -0.167280
B -0.251906 -1.049099 -0.228581
B 0.893936 0.603122 -0.231164
B -2.035366 0.303687 -0.446293
B 0.502034 -0.619483 -0.174930
B 0.056701 0.935097 -0.207875
B -0.874098 -0.845190 -0.272865
B 1.354453 0.036542 -0.307492
B -0.706441 0.612956 -0.214616
B 0.090850 -0.790006 -0.184488
B 0.548228 0.756484 -0.219113
B -1.597566 -0.327228 -0.386600
B 0.681069 -0.407871 -0.190224
B -0.266321 0.893810 -0.225853
B -0.528734 -1.088828 -0.296212
B 0.995384 0.394254 -0.264741
B -1.259403 0.480546 -0.336772
B 0.354682 -0.707592 -0.199783
B 0.254257 0.894413 -0.237090
B -1.145527 -0.705773 -0.346535
B 1.320592 -0.253201 -0.349793
B -0.554061 0.744578 -0.243831
B -0.094359 -0.922698 -0.246081
B 0.692392 0.616246 -0.248328
B -2.032468 0.029205 -0.549854
B 0.572969 -0.540228 -0.215078
B -0.067639 0.922604 -0.255068
B -0.744046 -0.942118 -0.334150
B 1.184218 0.191982 -0.337071
B -0.886976 0.582282 -0.300897
B 0.192830 -0.760759 -0.224636
B 0.436612 0.811963 -0.266306
B -1.519112 -0.530162 -0.469023
B 0.845816 -0.363443 -0.270803
B -0.377908 0.838728 -0.273046
B -0.330652 -1.003433 -0.316397
B 0.920933 0.516186 -0.318980
B -2.094253 0.492059 -0.655733
B 0.439543 -0.644696 -0.239931
B 0.111286 0.771706 -0.241840
B -1.131921 -0.926490 -0.457645
B 1.322937 -0.073747 -0.418125
B -0.638829 0.654245 -0.291024
B 0.029083 -0.913222 -0.293275
B 0.594943 0.692490 -0.295521
B -2.122770 -0.254618 -0.697870
B 0.630074 -0.451957 -0.255226
B -0.187118 0.891324 -0.302261
B -0.671444 -1.133668 -0.440899
B 1.000017 0.303287 -0.352558
B -1.186057 0.568802 -0.447402
B 0.287849 -0.716541 -0.264784
B 0.271523 0.722184 -0.266694
B -1.411348 -0.716070 -0.551446
B 1.002268 -0.279647 -0.365473
B -0.478261 0.767820 -0.320239
B -0.165866 -0.888437 -0.322490
B 0.721781 0.542595 -0.324737
B -2.104465 0.204833 -0.766339
B 0.512566 -0.570290 -0.280079
B 0.007259 0.766049 -0.281987
B -0.980693 -1.050331 -0.533023
B 1.163704 0.091023 -0.436296
B -0.813079 0.635706 -0.388712
B 0.125800 -0.752784 -0.289637
B 0.488220 0.751678 -0.342714
B -2.031787 -0.525558 -0.808476
B 0.789948 -0.419829 -0.347212
B -0.343188 0.968109 -0.401627
B -0.452540 -1.067455 -0.456722
B 0.932544 0.425667 -0.406797
B -2.239685 0.725911 -0.941168
B 0.373452 -0.658748 -0.304932
B 0.169422 0.737255 -0.306841
B -1.386803 -0.955430 -0.688056
B 1.272576 -0.177189 -0.528757
B -0.649158 0.785228 -0.422289
B -0.044986 -0.884388 -0.369683
B 0.629885 0.621084 -0.371930
B -2.201425 -0.080866 -0.932809
B 0.571940 -0.486557 -0.320227
B -0.109289 0.874928 -0.378669
B -0.890485 -1.254274 -0.665271
B 1.116949 0.240179 -0.497581
B -1.211169 0.709371 -0.615574
B 0.220202 -0.713549 -0.329785
B 0.319252 0.674134 -0.331695
B -1.900934 -0.774429 -0.919083
B 0.820328 -0.303870 -0.394405
B -0.458757 0.893334 -0.455866
B -0.230461 -0.841784 -0.398898
B 0.847803 0.533845 -0.461036
B -2.263582 0.411168 -1.065866
B 0.447418 -0.589182 -0.345080
B 0.067983 0.735784 -0.346988
B -1.505571 -1.366496 -0.961222
B 1.125184 -0.005176 -0.535520
B -0.825156 0.762929 -0.538430
B 0.060901 -0.732750 -0.354638
B 0.528366 0.682640 -0.419123
B -2.498696 -0.430104 -1.239190
B 0.616217 -0.395986 -0.360375
B -0.219419 0.831463 -0.425862
B -0.518589 -0.987339 -0.555945
B 0.927466 0.333884 -0.494614
B 0.305390 -0.660519 -0.369933
B 0.220683 0.692411 -0.371842
B 1.079432 -0.242524 -0.573459
B -0.631254 0.906735 -0.576369
B -0.113072 -0.842050 -0.446092
B 0.651253 0.543777 -0.448339
B -2.362631 0.108620 -1.257835
B 0.507814 -0.510022 -0.385228
B -0.029897 0.718076 -0.387135
B 1.084814 0.140884 -0.596805
B 0.153606 -0.697817 -0.394786
B 0.357562 0.617399 -0.396696
B 0.757436 -0.354196 -0.470814
B -0.318775 0.771644 -0.473055
B -0.328422 -0.900025 -0.546269
B 0.848805 0.441141 -0.548853
B 0.379012 -0.595468 -0.410081
B 0.122558 0.694007 -0.411989
B 1.191094 -0.104200 -0.707720
B -0.806587 0.879990 -0.710964
B 0.000216 -0.823104 -0.493286
B 0.554915 0.606093 -0.495532
B 0.553052 -0.423777 -0.425376
B -0.142646 0.805115 -0.502270
B -0.634082 -0.997373 -0.730493
B 1.021832 0.274997 -0.658090
B 0.237150 -0.648838 -0.434934
B 0.262946 0.637517 -0.436843
B 0.885897 -0.277603 -0.595346
B -0.464886 0.801679 -0.597920
B -0.172617 -0.786148 -0.522500
B 0.657111 0.462252 -0.524748
B 0.438976 -0.520570 -0.450229
B 0.027892 0.679114 -0.452136
B 1.032513 0.048033 -0.696030
B 0.090123 -0.668486 -0.459787
B 0.384345 0.552734 -0.461697
B 0.684051 -0.391729 -0.547223
B -0.239320 0.749433 -0.549463
B -0.378257 -0.819252 -0.634084
B 0.938524 0.393089 -0.719375
B 0.308999 -0.587550 -0.475082
B 0.168678 0.640647 -0.476990
B 1.106652 -0.189873 -0.818352
B -0.686301 0.885667 -0.821595
B -0.063555 -0.769572 -0.569694
B 0.565470 0.523411 -0.571941
B 0.483494 -0.438364 -0.490377
B -0.060278 0.648402 -0.492283
B -0.806165 -1.062763 -1.014587
B 0.973577 0.177396 -0.757315
B 0.170735 -0.622345 -0.499935
B 0.293805 0.572915 -0.501844
B 0.801986 -0.326222 -0.683162
B -0.322049 0.679057 -0.596656
B -0.253665 -0.823516 -0.688324
B 0.741525 0.434857 -0.690908
B 0.366830 -0.516113 -0.515230
B 0.077938 0.626814 -0.517137
B 1.068984 -0.038685 -0.886683
B -2.484660 2.447217 -2.908729
B 0.037726 -0.734069 -0.616888
B 0.466822 0.565317 -0.619134
B 0.600809 -0.413452 -0.623632
B -0.163311 0.708835 -0.625872
B -0.464180 -0.819790 -0.815678
B 0.893611 0.290175 -0.818599
B 0.239222 -0.563456 -0.540083
B 0.203639 0.575480 -0.541991
B 1.000378 -0.258189 -0.928984
B -0.445823 0.685562 -0.739975
B -0.116577 -0.699852 -0.646102
B 0.557077 0.436051 -0.648349
B 0.480243 -0.513798 -0.652847
B -0.005989 0.596489 -0.557284
B -0.815697 -0.908522 -1.148033
B 1.004347 0.098311 -0.955014
B 0.127482 -0.680863 -0.664082
B 0.310303 0.498798 -0.566845
B 0.703461 -0.356438 -0.770978
B -0.241065 0.640082 -0.673065
B -0.291693 -0.727211 -0.776140
B 0.795436 0.382013 -0.879884
B 0.344285 -0.580595 -0.682061
B 0.117263 0.560147 -0.582138
B 0.960542 -0.114684 -0.997315
B -0.628619 0.730861 -1.000557
B -0.020772 -0.663129 -0.693296
B 0.461597 0.473266 -0.695542
B 0.508114 -0.415445 -0.700040
B -0.093703 0.647190 -0.702281
B -0.530980 -0.779690 -1.020086
B 0.914754 0.215459 -1.023345
B 0.201916 -0.611676 -0.711276
B 0.223957 0.497799 -0.606992
B 0.780686 -0.271983 -0.932417
B -0.345494 0.641648 -0.827791
B -0.177961 -0.703643 -0.830380
B 0.604037 0.397021 -0.832963
B 0.386825 -0.489269 -0.729255
B 0.038334 0.526965 -0.622285
B -0.785462 -0.741360 -1.281479
B 0.891433 0.013297 -1.065646
B -2.715524 2.414178 -4.375409
B 0.062408 -0.607133 -0.740490
B 0.362451 0.487654 -0.742735
B 0.665855 -0.409750 -0.970355
B -0.164188 0.576337 -0.749474
B -0.346715 -0.692601 -0.976187
B 0.802824 0.306841 -1.091675
B -1.697574 0.671302 -2.336836
B 0.257058 -0.528655 -0.758470
B 0.141824 0.476967 -0.647139
B -1.095335 -0.656750 -1.674226
B 0.736721 -0.150485 -0.993702
B -0.439319 0.605490 -0.996610
B -0.074902 -0.654333 -0.884620
B 0.430336 0.373811 -0.771951
B -1.666812 0.044067 -2.276809
B 0.466129 -0.450235 -0.892371
B -0.034258 0.559734 -0.778689
B -0.508028 -0.627550 -1.130717
B 0.793971 0.118912 -1.133976
B -1.276264 0.860044 -2.192589
B 0.128243 -0.532859 -0.787684
B 0.263797 0.476715 -0.789928
B -1.509959 -0.506615 -2.329684
B 0.638823 -0.283673 -1.031640
B -0.245783 0.563532 -0.915608
B -0.198187 -0.577887 -0.918196
B 0.602304 0.328116 -1.040392
B -1.345870 0.333401 -2.122831
B 0.331495 -0.499046 -0.925947
B 0.080079 0.511575 -0.807905
B -0.641862 -0.512563 -1.293971
B 0.661692 -0.044894 -1.054986
B -0.558854 0.586320 -1.301145
B 0.011439 -0.578555 -0.938860
B 0.330269 0.375177 -0.819144
B -1.229754 -0.132474 -2.047705
B 0.455822 -0.335364 -0.946610
B -0.094618 0.479373 -0.825883
B -0.327336 -0.537766 -1.075410
B 0.668756 0.194052 -1.202306
B -1.066046 0.527155 -2.075716
B 0.196578 -0.506938 -0.959523
B 0.170368 0.437076 -0.837121
B -0.791030 -0.389411 -1.591264
B 0.574629 -0.167823 -1.092925
B -0.307583 0.507335 -1.095834
B -0.101648 -0.510246 -0.972435
B 0.415690 0.304723 -0.975018
B -1.034862 0.113345 -1.993544
B 0.333361 -0.380025 -0.980186
B 0.009373 0.435375 -0.855098
B -0.431392 -0.450986 -1.241348
B 0.552678 0.036533 -1.116271
B -0.771717 0.618505 -2.019878
B 0.073345 -0.474014 -0.993099
B 0.228931 0.343341 -0.866337
B -0.928393 -0.228228 -2.035682
B 0.459227 -0.251211 -1.130863
B -0.147704 0.433171 -1.003425
B -0.204979 -0.467711 -1.136696
B 0.514089 0.227216 -1.270637
B -0.796497 0.268815 -1.930659
B 0.209602 -0.380351 -1.013762
B 0.087814 0.362090 -0.884314
B -0.486958 -0.326888 -1.416010
B 0.464430 -0.070382 -1.154209
B -0.357153 0.442778 -1.423186
B -0.025319 -0.402010 -1.026675
B 0.285423 0.274734 -1.029257
B -0.743259 -0.018323 -1.970113
B 0.288302 -0.251319 -1.034425
B -0.042043 0.373060 -1.037003
B -0.244922 -0.336299 -1.174634
B 0.399585 0.080900 -1.177555
B -0.577905 0.347901 -1.994769
B 0.097898 -0.331381 -1.047338
B 0.148165 0.303370 -1.049918
B -0.465933 -0.183289 -1.599395
B 0.338677 -0.130119 -1.192147
B -0.175617 0.352359 -1.332454
B -0.094579 -0.329762 -1.197982
B 0.316256 0.193864 -1.338967
B -0.534134 0.103697 -2.034223
B 0.184995 -0.249815 -1.206738
B 0.031122 0.297691 -1.209653
B -0.239751 -0.212374 -1.351980
B 0.274598 -0.004570 -1.215493
B -0.298883 0.283101 -1.918802
B 0.017509 -0.246774 -1.221329
B 0.161142 0.203103 -1.364996
B -0.263084 -0.042017 -1.509334
B 0.166397 -0.109786 -1.230084
B -0.054046 0.215255 -1.516513
B -0.084450 -0.156155 -1.378012
B 0.141846 0.049150 -1.381266
B -0.117824 0.050953 -1.527281
B 0.027460 -0.061341 -1.387774
