809
Pore!
B 0.058914 -0.000017 1.236248
B -0.085174 0.077967 1.395403
B 0.011473 -0.131184 1.230625
B 0.107136 0.139778 1.389052
B -0.196618 -0.034790 1.385862
B 0.164466 -0.104661 1.222201
B -0.062257 0.231412 1.379512
B -0.104854 -0.201833 1.216573
B 0.227241 0.082986 1.213776
B -0.298419 0.123142 1.528985
B 0.113813 -0.243311 1.208150
B 0.095083 0.303261 1.363625
B -0.286590 -0.166078 1.360430
B 0.296927 -0.065304 1.199728
B -0.228746 0.325277 1.511252
B -0.041859 -0.322742 1.194096
B 0.290242 0.244634 1.347736
B -0.435765 0.017997 1.500600
B 0.251532 -0.250364 1.185676
B -0.021288 0.459294 1.493522
B -0.270530 -0.324152 1.335000
B 0.378493 0.050914 1.177254
B -0.446866 0.310857 1.637085
B 0.087500 -0.389135 1.171622
B 0.255452 0.445862 1.475791
B -0.499228 -0.159273 1.472216
B 0.383775 -0.177348 1.163203
B -0.253525 0.605619 1.769887
B -0.167731 -0.466231 1.309572
B 0.445900 0.234357 1.306418
B -0.667467 0.175901 1.757015
B 0.248536 -0.386608 1.149149
B 0.110105 0.640961 1.597940
B -0.472639 -0.366021 1.443834
B 0.478475 -0.039661 1.140730
B -0.634473 0.685735 2.183866
B 0.002368 -0.493294 1.135093
B 0.423874 0.467291 1.429678
B -0.768567 -0.071251 1.722726
B 0.407998 -0.309702 1.126677
B -0.153764 0.844843 1.861761
B -0.316032 -0.502156 1.268246
B 0.578667 0.158582 1.265099
B -1.229038 0.630628 2.873072
B 0.188398 -0.508293 1.112620
B 0.287866 0.707244 1.547031
B -0.697216 -0.330422 1.543076
B 0.534204 -0.164729 1.104204
B -0.547924 0.934776 2.113772
B -0.135434 -0.630506 1.242821
B 0.592247 0.420718 1.383563
B 0.379773 -0.446235 1.090149
B 0.035626 0.978646 1.801261
B -0.528525 -0.536288 1.369333
B 0.679441 0.034724 1.223778
B -1.265625 1.045591 2.920672
B 0.084443 -0.605539 1.076091
B 0.533058 0.774226 1.637061
B 0.544619 -0.308598 1.067677
B -0.348063 1.072665 1.903848
B -0.333022 -0.730034 1.340956
B 0.666662 0.282832 1.198351
B 0.304864 -0.573343 1.053620
B 0.270929 1.048765 1.740760
B -0.914552 -0.594361 1.736058
B 0.653774 -0.109100 1.045204
B -0.951084 1.215616 2.411166
B -0.059083 -0.757528 1.176072
B 0.688489 0.643206 1.445210
B 0.509174 -0.457440 1.031149
B -0.110891 1.135471 1.703516
B -0.580191 -0.772197 1.429498
B 0.775089 0.144904 1.157030
B 0.189668 -0.679214 1.017091
B 0.531261 1.047877 1.680258
B 0.665549 -0.267191 1.008677
B -0.639857 1.333095 2.062520
B -0.265491 -0.876135 1.266458
B 0.874055 0.517998 1.394298
B 0.429438 -0.598408 0.994620
B 0.145672 1.217717 1.643015
B 0.845553 -0.026726 1.115707
B 0.047743 -0.852999 1.109323
B 0.795865 0.972903 1.619756
B 0.632967 -0.431342 0.972149
B -0.338267 1.437619 1.860345
B -0.576273 -1.028734 1.474168
B 0.931138 0.307094 1.216832
B 0.350107 -0.814287 1.083902
B 0.429147 1.230867 1.582514
B 0.870402 -0.220406 1.074383
B -0.161485 -0.997579 1.191962
B 1.127318 0.890813 1.682852
B 0.628925 -0.666747 1.058480
B -0.021352 1.454134 1.667762
B -1.398091 -1.571668 2.395408
B 1.029705 0.105559 1.170714
B 0.176200 -0.917864 1.042575
B 0.720224 1.169747 1.522012
B 0.845022 -0.423328 1.033058
B -0.692031 1.811916 2.105720
B -0.472390 -1.193508 1.384176
B 1.258342 0.611460 1.498746
B 0.494559 -0.825403 1.017154
B 0.305743 1.494997 1.602465
B 1.077958 -0.123703 1.124593
B -0.029205 -1.091985 1.117466
B 1.078426 1.115937 1.577361
B 0.768041 -0.622140 0.991733
B -0.265784 1.777504 1.791754
B -1.072596 -1.590659 1.900319
B 1.308082 0.314444 1.324231
B 0.356146 -1.062566 1.089094
B 0.646330 1.454565 1.537168
B 1.069621 -0.367171 1.078472
B -1.162881 2.135859 2.304605
B -0.359339 -1.448694 1.405605
B 1.444814 0.959194 1.623116
B 0.641367 -0.803652 0.950406
B 0.118828 1.745206 1.606919
B 1.277398 0.024907 1.159307
B 0.137214 -1.277391 1.151441
B 0.979497 1.330629 1.471869
B 1.001919 -0.610261 1.032350
B -0.600020 2.069706 1.884753
B -0.795099 -1.606691 1.558341
B 2.249192 0.871502 2.084315
B 0.524614 -1.066480 1.014599
B 0.508162 1.738386 1.536826
B 1.296507 -0.258656 1.108390
B -1.521213 2.076253 2.144872
B -0.186044 -1.693913 1.411540
B 1.473105 1.291561 1.613184
B 0.875710 -0.838150 0.986227
B -0.137976 2.095080 1.698075
B -1.395935 -1.740676 1.793719
B 1.708318 0.263864 1.381452
B 0.322828 -1.314902 1.069198
B 0.897059 1.638912 1.466731
B 1.248337 -0.547512 1.057471
B -0.915952 2.073789 1.748265
B -0.603351 -1.785972 1.445107
B 1.994509 1.098459 1.735312
B 0.767760 -1.144432 1.037876
B 0.304889 2.008527 1.520987
B 1.384096 -0.087543 1.026145
B -1.598917 1.661983 1.696257
B 0.046689 -1.916855 1.401980
B 1.349273 1.547046 1.492195
B 1.132384 -0.825181 1.006552
B -0.435517 2.153920 1.569335
B -1.067825 -1.772598 1.469082
B 1.606551 0.474169 1.182246
B 0.566387 -1.441009 1.079930
B 0.748429 1.946585 1.446097
B 1.367871 -0.392711 0.975227
B -1.236011 2.017537 1.611778
B -0.349709 -1.798515 1.240745
B 1.692117 1.252410 1.417301
B 1.041822 -1.176757 1.045656
B 0.038064 2.251965 1.489651
B -1.925808 -2.031960 1.840598
B 1.304800 0.092254 0.854980
B -1.880199 1.492641 1.559771
B 0.314138 -1.970408 1.288747
B 1.251836 1.896319 1.459017
B 1.401871 -0.758557 1.011381
B -0.747129 2.158319 1.440595
B -0.799316 -1.846916 1.261769
B 1.965873 0.879673 1.342404
B 0.916897 -1.645959 1.160394
B 0.596547 2.510316 1.579684
B 1.322877 -0.194289 0.808859
B -1.373310 1.686492 1.307790
B -0.110676 -1.896137 1.135260
B 1.564926 1.520235 1.296311
B 1.444177 -1.247339 1.120218
B -0.255537 2.177014 1.279004
B -1.366447 -1.894567 1.354737
B 1.325663 0.274716 0.780481
B -2.134051 1.271258 1.423285
B 0.675124 -2.247259 1.336375
B 1.882311 3.899451 2.451167
B 1.275396 -0.483323 0.762737
B -1.062610 2.107547 1.311856
B -0.563996 -2.001210 1.148536
B 1.649012 1.021257 1.064977
B 0.236276 2.365267 1.281226
B 1.235842 -0.014924 0.657986
B -1.635744 1.535056 1.186800
B 0.158458 -2.096432 1.105408
B 1.478940 1.881651 1.250589
B 1.404446 -0.917434 0.865673
B -0.559984 2.187685 1.158013
B -1.066366 -1.993943 1.152220
B 1.451990 0.510500 0.779404
B -2.752543 1.175167 1.505952
B 1.237214 -2.729387 1.498377
B 0.887148 2.713599 1.418484
B 1.224391 -0.284729 0.616662
B -1.206916 1.761348 1.040705
B -0.300346 -2.116602 1.035303
B 1.540032 1.266521 0.959484
B -1.847113 0.098679 0.884311
B -0.078438 2.293737 1.083123
B -1.971619 -2.305482 1.422279
B 1.259834 0.154051 0.591235
B -1.874620 1.338058 1.065812
B 0.478836 -2.255557 1.060061
B 1.772047 3.007933 1.594484
B 1.285987 -0.613129 0.642118
B -0.868471 2.147298 1.037023
B -0.759193 -2.033245 0.965199
B 1.538066 0.784844 0.762831
B -1.666128 0.460703 0.758506
B 0.449077 2.437064 1.072800
B 1.281887 -0.121807 0.549911
B -1.465567 1.622956 0.927464
B -0.015794 -2.188973 0.922069
B 1.491726 1.605127 0.916714
B -1.737665 -0.139954 0.724219
B 1.377177 -1.071718 0.719964
B -0.392509 2.315336 0.962133
B -1.439383 -2.227178 1.078828
B 1.256106 0.328006 0.524484
B -1.682387 0.889105 0.763305
B 0.995846 -2.789180 1.179633
B 1.092035 2.592763 1.112653
B 1.241896 -0.399386 0.508587
B -1.096980 1.924476 0.857370
B -0.491691 -2.162050 0.851966
B 1.574947 1.090449 0.730761
B -1.598511 0.218796 0.610957
B 3.656066 -4.402072 2.151122
B 0.115221 2.374882 0.887242
B 1.160742 0.045307 0.427078
B -1.702961 1.441883 0.814224
B 0.301113 -2.367082 0.864177
B 1.377996 1.950571 0.858446
B -1.737411 -0.377785 0.634226
B 1.272823 -0.741598 0.521498
B -0.711415 2.286244 0.841143
B -1.020753 -2.168132 0.835359
B 1.366394 0.560347 0.510862
B -1.531492 0.563256 0.560046
B 1.808157 -3.501497 1.342004
B 0.669755 2.469036 0.864372
B 1.155981 -0.207247 0.390551
B -1.368411 1.793260 0.744130
B -0.202614 -2.248396 0.738732
B 1.440948 1.313966 0.633015
B -1.487501 0.003405 0.478905
B 1.437062 -1.322653 0.623696
B -0.206046 2.410590 0.766252
B -1.950742 -2.532207 1.003961
B 1.316916 0.229806 0.416409
B -1.519645 0.971534 0.557098
B 0.744436 -2.795323 0.885978
B 1.268117 2.428126 0.831909
B -2.138229 -0.775306 0.684799
B 1.238967 -0.514808 0.400512
B -1.026428 2.206438 0.720153
B -0.734229 -2.321880 0.714378
B 1.570405 0.905265 0.527125
B -1.465808 0.325763 0.432790
B 1.757065 -2.511704 0.875685
B 0.339753 2.575900 0.735634
B 1.191277 -0.052030 0.331548
B -1.508727 1.508218 0.587724
B 0.114251 -2.602530 0.711093
B 1.372325 1.636878 0.577700
B -1.496439 -0.197851 0.404408
B 1.237807 -0.865527 0.400879
B -0.533266 2.395789 0.645262
B -1.304506 -2.264321 0.680433
B 1.292615 0.409097 0.349656
B -1.373038 0.638176 0.386675
B 1.307471 -3.144763 0.861291
B 0.892175 2.462846 0.655944
B -2.322891 -1.214019 0.649779
B 1.161555 -0.309072 0.295020
B -1.243928 1.944276 0.560795
B -0.423603 -2.430843 0.593397
B 1.579719 1.217635 0.474762
B -1.357962 0.115631 0.321030
B 1.888566 -2.051077 0.649920
B -0.006447 2.472888 0.570369
B -2.413757 -2.648455 0.817675
B 1.202369 0.108630 0.272544
B -1.465018 1.117153 0.411396
B 0.521958 -2.907719 0.652462
B 1.325310 2.095420 0.541570
B -1.627383 -0.441980 0.364223
B 1.216779 -0.628017 0.292437
B -0.857876 2.330178 0.524273
B -0.942038 -2.298756 0.518499
B 1.384515 0.652248 0.315741
B -1.310129 0.407201 0.279710
B 1.413352 -2.424609 0.565426
B 0.528103 2.432313 0.495475
B -2.033400 -1.437376 0.489689
B 1.205257 -0.153050 0.236017
B -1.404807 1.658036 0.416933
B -0.102879 -2.651152 0.502668
B 1.417845 1.432173 0.377017
B -1.375254 -0.067159 0.254280
B 1.305877 -1.084119 0.309407
B -0.339519 2.474535 0.449380
B -1.603982 -2.317939 0.500419
B 1.188670 0.270621 0.213540
B -1.338060 0.762119 0.266061
B 0.962751 -2.991501 0.535538
B 1.043794 2.274673 0.420580
B -1.716115 -0.723405 0.308542
B 1.150430 -0.410474 0.199490
B -1.096435 2.073020 0.377459
B -0.632704 -2.425329 0.397517
B 1.566181 1.012764 0.291419
B -1.364493 0.230859 0.212960
B 1.541412 -1.979900 0.380244
B 0.200723 2.502001 0.374486
B -1.838786 -1.709819 0.368708
B 1.224890 0.009113 0.177013
B -1.506969 1.359903 0.288568
B 0.268829 -2.822512 0.396443
B 1.320758 1.749609 0.301409
B -1.364508 -0.251876 0.187532
B 1.176614 -0.736252 0.184362
B -0.714469 2.580561 0.349422
B -1.143578 -2.242477 0.322621
B 1.301328 0.486264 0.174828
B -1.288413 0.520596 0.171640
B 1.154198 -2.419530 0.324900
B 0.736212 2.410139 0.299590
B -1.893389 -1.116181 0.256182
B 1.202898 -0.255095 0.140486
B -1.372048 1.920868 0.264220
B -0.305614 -2.504133 0.276535
B 1.548927 1.325335 0.218763
B -1.391722 0.047144 0.146211
B 1.340876 -1.314689 0.192847
B -0.144196 2.682966 0.269731
B -1.706480 -2.076131 0.263590
B 1.219749 0.173370 0.118009
B -1.283797 0.879050 0.145447
B 0.719758 -3.092073 0.289479
B 1.240373 2.202616 0.224694
B -1.479651 -0.484234 0.134802
B 1.123367 -0.508933 0.103959
B -0.993920 2.325866 0.207404
B -0.838511 -2.386797 0.201639
B 1.373707 0.735106 0.120620
B -1.195729 0.305651 0.092716
B 1.384682 -2.118775 0.184360
B 0.410101 2.498090 0.178601
B -1.735304 -1.364705 0.150695
B 1.231470 -0.092808 0.081482
B -1.622737 1.728002 0.150982
B 0.033152 -2.695065 0.165513
B 1.363776 1.526112 0.121018
B -1.390952 -0.139391 0.079463
B 1.249897 -0.934085 0.085142
B -0.532751 2.808884 0.149481
B -1.419417 -2.293239 0.134860
B 1.189809 0.335625 0.059004
B -1.249173 0.629296 0.063571
B 0.956553 -2.522558 0.116473
B 0.938480 2.355639 0.103705
B -1.698530 -0.820520 0.072850
B 1.184607 -0.355609 0.044955
B -1.215610 2.039071 0.080884
B -0.514123 -2.483894 0.080656
B 1.530104 1.104182 0.055712
B -1.228805 0.143830 0.033715
B 1.552493 -1.796747 0.059316
B 0.073484 2.536103 0.057613
B -1.654279 -1.703842 0.048529
B 1.235325 0.072384 0.022478
B -1.211944 0.986201 0.024832
B 0.416582 -2.832127 0.038994
B 1.332340 1.966262 0.026962
B -1.362083 -0.324129 0.012714
B 1.223299 -0.681121 0.009536
B -0.903775 2.716436 0.012998
B -1.035982 -2.316736 0.005761
B 1.284854 0.556437 -0.000000
B -1.169695 0.404466 -0.002810
B 1.130824 -2.088821 -0.010785
B 0.576996 2.304097 -0.016177
B -1.710662 -1.129984 -0.018617
B 1.222176 -0.194581 -0.014049
B -1.477376 1.859670 -0.032353
B -0.178386 -2.531226 -0.040328
B 1.487475 1.410524 -0.037236
B -1.237212 -0.021311 -0.025286
B 1.291617 -1.143046 -0.039165
B -0.299329 2.846276 -0.071491
B -1.508698 -2.039512 -0.069133
B 1.214310 0.236405 -0.036527
B -1.193579 0.730668 -0.044500
B 0.790129 -2.749945 -0.097487
B 1.129972 2.270506 -0.092182
B -1.457345 -0.560831 -0.060306
B 1.150999 -0.452125 -0.050575
B -1.114083 2.277582 -0.109463
B -0.717069 -2.431685 -0.115222
B 1.475881 0.889588 -0.082249
B -1.211671 0.244578 -0.061811
B 1.301760 -1.785627 -0.115538
B 0.282283 2.518280 -0.138272
B -1.542284 -1.345880 -0.116356
B 1.235130 -0.029814 -0.073053
B -1.241345 1.193421 -0.105744
B 0.170703 -2.689473 -0.171643
B 1.385260 1.719364 -0.145681
B -1.220737 -0.185700 -0.084287
B 1.160027 -0.777884 -0.098538
B -0.712923 2.931963 -0.219780
B -1.298433 -2.359031 -0.202291
B 1.322454 0.447111 -0.108076
B -1.128730 0.498080 -0.098336
B 1.016407 -2.316127 -0.207404
B 0.762581 2.240694 -0.199519
B -1.649478 -0.903476 -0.162842
B 1.197293 -0.293689 -0.109579
B -1.403332 2.101928 -0.230448
B -0.385134 -2.497285 -0.236206
B 1.591838 1.277256 -0.195490
B -1.229107 0.080540 -0.120812
B 1.410842 -1.473478 -0.204795
B -0.059414 2.685558 -0.275862
B -1.450363 -1.655132 -0.231067
B 1.223196 0.134621 -0.132057
B -1.123021 0.822212 -0.152570
B 0.525595 -2.631613 -0.300377
B 1.389588 2.294981 -0.306517
B -1.334775 -0.390629 -0.162103
B 1.102900 -0.542254 -0.146105
B -1.092440 2.797685 -0.364008
B -0.909423 -2.348771 -0.311099
B 1.389448 0.688015 -0.195121
B -1.179180 0.341418 -0.157337
B 1.141774 -1.873702 -0.286331
B 0.485706 2.468393 -0.334158
B -1.635925 -1.204955 -0.274600
B 1.219127 -0.130695 -0.168584
B -1.342576 1.523301 -0.283915
B -0.051521 -2.672969 -0.380066
B 1.510117 1.586117 -0.316480
B -1.221667 -0.083579 -0.179812
B 1.208228 -0.963856 -0.230594
B -0.464349 2.954973 -0.453297
B -1.386785 -2.090071 -0.385992
B 1.186778 0.294661 -0.191062
B -1.073770 0.584140 -0.193862
B 0.813986 -2.369670 -0.403285
B 0.999973 2.296358 -0.409057
B -1.408669 -0.626449 -0.255415
B 1.157337 -0.387652 -0.205109
B -1.367906 2.468510 -0.480934
B -0.583925 -2.431644 -0.432084
B 1.674117 1.129488 -0.353745
B -1.205261 0.179804 -0.216337
B 1.371128 -1.692002 -0.391824
B 0.160730 2.651694 -0.484291
B -1.449415 -1.401475 -0.372340
B 1.216100 0.032786 -0.227588
B -1.159727 1.006196 -0.290895
B 0.284681 -2.476056 -0.478178
B 1.555496 2.146417 -0.514949
B -1.189691 -0.243701 -0.238813
B 1.178099 -0.705573 -0.273364
B -0.937975 3.147652 -0.661722
B -1.155819 -2.380117 -0.539443
B 1.274931 0.504964 -0.282904
B -1.131956 0.431882 -0.252863
B 1.041372 -2.077695 -0.490699
B 0.678592 2.387279 -0.530044
B -1.570959 -0.967895 -0.398534
B 1.187503 -0.227713 -0.264114
B -1.668927 2.242653 -0.617413
B -0.268168 -2.621762 -0.588488
B 1.612341 1.435026 -0.487278
B -1.206514 0.017313 -0.275338
B 1.338321 -1.261920 -0.424264
B -0.192352 2.622795 -0.613024
B -1.334920 -1.690266 -0.507343
B 1.188495 0.192656 -0.286593
B -1.138064 0.747069 -0.327390
B 0.605851 -2.390501 -0.599165
B 1.241981 2.309762 -0.643685
B -1.283133 -0.447822 -0.336921
B 1.103044 -0.474008 -0.300639
B -1.334432 2.961403 -0.821445
B -0.818878 -2.484925 -0.668176
B 1.457259 0.816787 -0.430828
B -1.165973 0.273923 -0.311864
B 1.205479 -1.768241 -0.562617
B 0.327638 2.272314 -0.609338
B -1.532510 -1.254378 -0.530584
B 1.192871 -0.066522 -0.323118
B -1.162778 1.190765 -0.454308
B 0.077820 -2.445433 -0.674056
B 1.593348 1.854612 -0.679845
B -1.183156 -0.141935 -0.334339
B 1.221745 -0.876422 -0.425712
B -0.565634 2.693999 -0.786399
B -1.242711 -2.098149 -0.702852
B 1.286608 0.390189 -0.390979
B -1.070847 0.513513 -0.348390
B 0.848973 -2.113523 -0.674035
B 0.855764 2.276231 -0.725931
B -1.473192 -0.747461 -0.497379
B 1.140666 -0.318293 -0.359644
B -1.775977 2.851034 -1.028760
B -0.473555 -2.536247 -0.796910
B 1.812742 1.362715 -0.706411
B -1.175231 0.114362 -0.370864
B 1.410081 -1.568977 -0.668110
B 0.021387 2.262626 -0.722575
B -1.331903 -1.426469 -0.628325
B 1.173597 0.091775 -0.382123
B -1.048372 0.819619 -0.435462
B 0.371745 -2.224890 -0.744130
B 1.395697 2.148900 -0.852117
B -1.285276 -0.332478 -0.444990
B 1.171331 -0.622564 -0.448191
B -1.059775 2.989273 -1.080050
B -1.116944 -2.634554 -0.982113
B 1.343490 0.613234 -0.510862
B -1.111756 0.360302 -0.407390
B 1.105163 -1.949581 -0.787276
B 0.501442 2.182261 -0.792680
B -1.464164 -1.008734 -0.634226
B 1.153559 -0.160645 -0.418648
B -1.228335 1.485711 -0.698152
B -0.121170 -2.380984 -0.869934
B 1.804704 1.779497 -0.931814
B -1.159822 -0.042627 -0.429865
B 1.347065 -1.146038 -0.659967
B -0.294507 2.357193 -0.892999
B -1.285968 -1.811293 -0.841174
B 1.278981 0.275001 -0.499054
B -1.127828 0.660513 -0.502210
B 0.697833 -2.261517 -0.916033
B 0.947173 2.000128 -0.862785
B -1.347083 -0.548809 -0.571138
B 1.220952 -0.452310 -0.514944
B -0.701672 -2.562745 -1.065837
B 1.991185 1.253798 -0.950632
B -1.127962 0.204860 -0.466391
B 1.238278 -1.630736 -0.838903
B 0.201969 2.186452 -0.905917
B -1.402010 -1.272497 -0.786569
B 1.141749 -0.005276 -0.477653
B -1.057460 0.977651 -0.606623
B 0.181065 -2.179240 -0.927464
B 1.611482 2.082038 -1.124379
B -1.120530 -0.192897 -0.488865
B 1.206427 -0.775312 -0.620831
B -0.631704 2.393480 -1.078917
B -1.219072 -2.320915 -1.150319
B 1.344928 0.484152 -0.631481
B -1.043324 0.436272 -0.502917
B 0.971991 -2.102466 -1.037023
B 0.612564 1.922090 -0.909242
B -1.491335 -0.855099 -0.779928
B 1.242633 -0.279225 -0.581697
B -0.306574 -2.282676 -1.065812
B 2.105100 1.757698 -1.277499
B -1.119421 0.051439 -0.525391
B 1.515588 -1.522279 -1.013760
B -0.089308 2.143689 -1.019153
B -1.286168 -1.526854 -0.954409
B 1.251189 0.162468 -0.607129
B -1.031123 0.724451 -0.610282
B 0.490356 -2.227948 -1.111912
B 1.141844 1.971664 -1.117705
B -1.197867 -0.376087 -0.619809
B 1.267693 -0.592852 -0.695332
B -1.088765 2.635289 -1.425694
B -0.976228 -2.675173 -1.432902
B 1.623001 0.843491 -0.926250
B -1.065016 0.285961 -0.561918
B 1.134847 -1.783098 -1.083854
B 0.341922 1.936440 -1.014730
B -1.443735 -1.107486 -0.944815
B 1.236238 -0.108179 -0.648450
B -1.129031 1.231694 -0.878507
B 0.000531 -2.243225 -1.186800
B 1.803339 1.969672 -1.421729
B -1.086792 -0.095690 -0.584392
B 1.432541 -1.097761 -0.972781
B -0.389257 2.196644 -1.209867
B -1.195229 -1.879980 -1.215591
B 1.322740 0.355958 -0.752100
B -1.087836 0.564564 -0.677029
B 0.761421 -2.083444 -1.232902
B 0.736364 1.785404 -1.080039
B -1.361675 -0.637657 -0.845939
B 1.297680 -0.406680 -0.769834
B -0.532781 -2.426193 -1.423285
B -1.061791 0.137277 -0.620918
B 1.322507 -1.568435 -1.197097
B 0.078260 1.906666 -1.120218
B -1.343644 -1.350910 -1.125198
B 1.341997 0.062402 -0.798218
B -1.030135 0.859103 -0.801735
B 0.290521 -2.155419 -1.307790
B 1.239638 1.782781 -1.313592
B -1.166873 -0.262850 -0.727880
B 1.397077 -0.800111 -0.985668
B -0.699508 2.190269 -1.416076
B -1.715163 -3.714662 -2.534895
B 1.604869 0.672160 -1.084502
B -1.116399 0.401168 -0.743777
B 1.063044 -2.021505 -1.440595
B 0.475688 1.806829 -1.185528
B -1.453425 -0.935085 -1.103060
B 1.296010 -0.222398 -0.844335
B -0.186425 -2.256682 -1.471224
B 2.257804 2.089878 -2.010925
B -1.169949 -0.006044 -0.769202
B 1.568102 -1.421833 -1.399995
B -0.183113 1.969107 -1.315729
B -1.274657 -1.680347 -1.411469
B 1.407928 0.256514 -0.963482
B -1.095340 0.688816 -0.876231
B 0.554839 -2.022693 -1.428780
B 0.894081 1.743504 -1.342707
B -1.206297 -0.447595 -0.886863
B 1.313225 -0.534226 -0.983058
B -1.177645 2.482899 -1.916703
B -0.689946 -2.239738 -1.644251
B -1.116349 0.239377 -0.810525
B 1.273020 -1.791219 -1.569335
B 0.221704 1.783400 -1.291015
B -1.365479 -1.162879 -1.295988
B 1.394565 -0.050502 -1.014396
B -1.179182 1.161327 -1.210129
B 0.111585 -2.172449 -1.599962
B 1.382184 1.673832 -1.606145
B -1.112424 -0.155525 -0.835951
B 1.995030 -1.373001 -1.813197
B -0.396898 1.722439 -1.331191
B -1.188234 -2.098482 -1.826870
B -1.011169 0.460843 -0.851850
B 0.885894 -2.086807 -1.748265
B 0.540370 1.527167 -1.256707
B -1.540020 -0.819534 -1.361290
B 1.437723 -0.371112 -1.165663
B -1.989864 3.059653 -2.882200
B -0.326555 -1.960122 -1.578556
B -1.088000 0.084477 -0.877274
B 1.519949 -1.626274 -1.800274
B -0.014744 1.464234 -1.191364
B -1.312049 -1.461342 -1.607347
B 1.575214 0.154155 -1.303260
B -1.062476 0.797728 -1.100521
B 0.358742 -1.916334 -1.624659
B 0.764120 1.228319 -1.212804
B -1.150448 -0.321677 -1.007479
B -0.506076 1.343596 -1.225638
B -0.716773 -1.786872 -1.653445
B -1.011418 0.306104 -0.918598
B 1.099056 -1.853586 -1.884753
B 0.265348 1.267676 -1.139715
B -1.444586 -1.037381 -1.574510
B 1.520112 -0.181539 -1.363764
B -0.995646 1.157491 -1.368381
B -0.055279 -1.763138 -1.590708
B 0.976116 1.000799 -1.268519
B -1.152276 -0.064887 -1.053598
B -0.181576 1.253820 -1.171039
B -1.046043 -1.535972 -1.728335
B -1.095962 0.613440 -1.182764
B 0.540387 -1.637237 -1.633859
B 0.463968 1.031328 -1.078472
B -1.466565 -0.631124 -1.532082
B -0.586595 1.089313 -1.202361
B -0.387930 -1.533685 -1.547166
B 1.124246 0.738934 -1.324231
B -1.096036 0.177038 -1.099718
B 1.257357 -1.590483 -2.021241
B 0.080004 1.100227 -1.106846
B -1.381821 -1.304230 -1.918705
B -0.986243 0.876724 -1.349901
B 0.157585 -1.533572 -1.587364
B 0.647246 0.870843 -1.124593
B -1.172381 -0.225463 -1.245418
B -0.294272 1.032810 -1.135218
B -0.678367 -1.355058 -1.612464
B 1.203256 0.459866 -1.379942
B -1.090903 0.431346 -1.265008
B 0.703653 -1.447261 -1.747102
B 0.300617 1.011089 -1.152968
B -1.651328 -0.990136 -2.118669
B -0.612617 0.844259 -1.163590
B -0.155093 -1.354511 -1.531278
B 0.781447 0.678804 -1.170714
B -1.137976 0.030051 -1.296334
B 1.353266 -1.307240 -2.157728
B -0.056026 0.914855 -1.058480
B -0.974467 -1.203710 -1.800989
B 1.212228 0.181523 -1.435652
B -0.925227 0.623429 -1.315927
B 0.308892 -1.283698 -1.568523
B 0.434718 0.785620 -1.074383
B -1.929961 -0.647571 -2.453300
B -0.354384 0.812435 -1.083902
B -0.419226 -1.222315 -1.591779
B 0.861005 0.469036 -1.216832
B -1.144561 0.283485 -1.474168
B 0.817114 -1.230242 -1.860345
B 0.133986 0.856127 -1.099806
B -1.221643 -0.975555 -1.999109
B 1.154663 -0.078381 -1.491360
B -0.657899 0.690166 -1.238085
B 0.024565 -1.244685 -1.629024
B 0.558980 0.634993 -1.115707
B -1.225583 -0.132061 -1.638314
B 1.379320 -1.014914 -2.294215
B -0.161392 0.817494 -1.125228
B -0.631173 -1.036895 -1.652282
B 0.883855 0.256445 -1.262950
B -0.820646 0.405758 -1.266458
B 0.431854 -1.113825 -1.666270
B 0.294648 0.755963 -1.141131
B -1.312163 -0.645979 -2.074005
B 1.038335 -0.303299 -1.547066
B -0.413642 0.682194 -1.150650
B -0.226960 -1.139103 -1.689526
B 0.635952 0.466181 -1.157030
B -0.960135 0.105122 -1.429498
B 0.871564 -0.993672 -1.973587
B 0.014707 0.684319 -1.031149
B -0.840708 -0.878890 -1.848558
B 0.851580 0.056262 -1.309066
B -0.592928 0.475160 -1.176072
B 0.168974 -1.092370 -1.726771
B 0.367698 0.551472 -1.045204
B -0.891258 -0.219125 -1.460827
B 0.799620 -0.437470 -1.464784
B -0.209602 0.614598 -1.053620
B -0.428782 -0.978320 -1.750029
B 0.662372 0.292738 -1.198351
B -0.681216 0.229870 -1.201495
B 0.504260 -0.915165 -1.764016
B 0.147515 0.608343 -1.067677
B -0.786681 -0.528102 -1.632727
B 0.769344 -0.116628 -1.355181
B -0.383882 0.475859 -1.076091
B -0.058175 -0.923135 -1.645598
B 0.433262 0.417035 -1.081731
B -0.752727 -0.018588 -1.369333
B 0.621128 -0.541517 -1.515693
B -0.065648 0.582275 -1.090149
B -0.521474 -0.716018 -1.667015
B 0.637979 0.129141 -1.239671
B -0.552518 0.332572 -1.242821
B 0.243928 -0.825845 -1.679890
B 0.245321 0.502321 -1.104204
B -0.650348 -0.255856 -1.397713
B 0.645625 -0.248092 -1.401295
B -0.241836 0.485150 -1.112620
B -0.206121 -0.718593 -1.554834
B 0.452172 0.277166 -1.118255
B -0.582459 0.113043 -1.268246
B 0.389477 -0.526017 -1.419022
B 0.053243 0.509453 -1.126677
B -0.478286 -0.423686 -1.426096
B 0.565204 -0.009440 -1.280990
B -0.358167 0.339207 -1.135093
B 0.043473 -0.613085 -1.436750
B 0.298415 0.376112 -1.140730
B -0.528916 -0.084505 -1.293674
B 0.440545 -0.290711 -1.296876
B -0.111942 0.445763 -1.149149
B -0.271807 -0.502616 -1.454480
B 0.420736 0.145749 -1.154779
B -0.402009 0.173807 -1.157567
B 0.222074 -0.496055 -1.465136
B 0.133204 0.401238 -1.163203
B -0.410104 -0.228614 -1.319104
B 0.447960 -0.106368 -1.322308
B -0.223956 0.330040 -1.171622
B -0.064109 -0.437117 -1.328647
B 0.296075 0.241224 -1.177254
B -0.372576 0.021613 -1.180043
B 0.287100 -0.295452 -1.338194
B -0.010522 0.354739 -1.185676
B -0.255356 -0.295805 -1.344536
B 0.333232 0.039182 -1.191301
B -0.264031 0.190269 -1.194096
B 0.072351 -0.348876 -1.354080
B 0.155509 0.261242 -1.199728
B -0.280378 -0.084332 -1.202521
B 0.253011 -0.122090 -1.205345
B -0.099597 0.249468 -1.208150
B -0.102453 -0.270502 -1.369969
B 0.215990 0.108966 -1.213776
B -0.218942 0.061605 -1.216573
B 0.111542 -0.180078 -1.219389
B 0.036182 0.191557 -1.222201
B -0.141329 -0.105720 -1.225002
B 0.154902 -0.015457 -1.227821
B -0.087831 0.098116 -1.230625
B -0.001242 -0.102060 -1.233435
B 0.040293 0.042981 -1.236248
