186

Pd 0.682146 6.749955 1.472043
Pd -0.726854 -6.754845 -1.428557
C 5.208746 -2.146145 0.297743
C 5.086946 -3.330245 0.081243
C 4.896746 -4.709945 -0.120557
C 5.893446 -5.621945 0.181343
C 5.680446 -6.997445 0.035843
C 4.470446 -7.484345 -0.388257
C 3.429546 -6.587745 -0.710757
C 2.149946 -7.023445 -1.105057
N 1.177946 -6.188845 -1.406757
C 1.400446 -4.850245 -1.386357
C 2.596546 -4.324145 -0.990757
C 3.645146 -5.184045 -0.606157
H 6.847046 -5.265145 0.540043
H 6.482446 -7.678245 0.276343
H 4.304346 -8.545945 -0.478357
H 1.926646 -8.085845 -1.163057
H 0.564046 -4.230445 -1.703757
H 2.755146 -3.258245 -0.960957
C 5.328646 -0.767445 0.556043
C 6.532446 -0.237945 1.035243
C 6.642746 1.111155 1.290343
C 5.550546 1.960655 1.075043
C 4.345646 1.429555 0.600443
C 4.236346 0.082055 0.341943
H 7.375346 -0.892545 1.199643
H 7.572446 1.521155 1.655743
H 3.510046 2.088255 0.426843
H 3.311446 -0.328645 -0.030757
C 5.681146 3.342755 1.307143
C 5.798646 4.535255 1.478443
C 6.018346 5.918555 1.604743
C 7.311446 6.402655 1.701743
C 7.565546 7.776455 1.752643
C 6.540546 8.687855 1.688843
C 5.209546 8.242455 1.600743
C 4.109346 9.125655 1.515643
C 2.840846 8.626955 1.453643
N 2.587746 7.295555 1.501243
C 3.588446 6.438855 1.555743
C 4.931746 6.844555 1.584243
H 8.136146 5.706755 1.725943
H 8.586746 8.117655 1.828343
H 6.741946 9.747455 1.704843
H 4.285046 10.189355 1.498043
H 1.973546 9.278655 1.364143
H 3.339346 5.380455 1.588643
C 0.655946 -2.685645 4.979043
C 0.586546 -3.864845 4.717743
C 0.551546 -5.227245 4.364243
C 1.003346 -6.205045 5.233143
C 1.025146 -7.552345 4.854043
C 0.618346 -7.941245 3.603643
C 0.141646 -6.975945 2.691043
C -0.251254 -7.303245 1.379243
N -0.701854 -6.405545 0.528243
C -0.843054 -5.112945 0.915643
C -0.462254 -4.685845 2.155443
C 0.077646 -5.606545 3.076343
H 1.352246 -5.921645 6.214543
H 1.381946 -8.287145 5.559143
H 0.657146 -8.977745 3.308843
H -0.182854 -8.329945 1.027443
H -1.280854 -4.445145 0.176943
H -0.565354 -3.652245 2.444443
C 0.727246 -1.306445 5.254643
C 0.752046 -0.844545 6.575343
C 0.798746 0.507555 6.834243
C 0.827446 1.427555 5.778543
C 0.824146 0.963255 4.458243
C 0.770846 -0.387545 4.199043
H 0.724946 -1.553245 7.389643
H 0.807846 0.865555 7.852943
H 0.859846 1.672755 3.647443
H 0.764546 -0.749945 3.183343
C 0.824146 2.806855 6.059143
C 0.777646 3.990255 6.309743
C 0.651946 5.340655 6.681343
C 0.583846 5.678255 8.022243
C 0.391446 7.003255 8.424343
C 0.245046 8.008255 7.500243
C 0.313446 7.714255 6.126743
C 0.152546 8.697255 5.124043
C 0.245246 8.347455 3.808543
N 0.517346 7.077555 3.419143
C 0.653446 6.128155 4.323743
C 0.542846 6.373155 5.701243
H 0.672146 4.902755 8.767643
H 0.345146 7.228955 9.478743
H 0.075746 9.026355 7.813743
H -0.046154 9.717555 5.410643
H 0.104146 9.074955 3.011243
H 0.867546 5.123355 3.965443
C -5.223054 2.205655 -0.530057
C -5.091154 3.391455 -0.329557
C -4.886554 4.771555 -0.141157
C -5.846054 5.696055 -0.515057
C -5.613254 7.070055 -0.383857
C -4.420054 7.541555 0.100243
C -3.418954 6.631355 0.501743
C -2.158054 7.049755 0.967843
N -1.224954 6.202755 1.348543
C -1.474254 4.869055 1.341243
C -2.653154 4.358155 0.879043
C -3.656454 5.230255 0.409943
H -6.784254 5.350855 -0.922157
H -6.385854 7.761255 -0.683557
H -4.237354 8.601355 0.179443
H -1.917054 8.108955 1.018343
H -0.677154 4.239055 1.729743
H -2.831654 3.294955 0.864243
C -5.347854 0.820855 -0.753857
C -4.199254 0.027355 -0.861257
C -4.311254 -1.329645 -1.063257
C -5.573954 -1.926345 -1.154957
C -6.722454 -1.130045 -1.062457
C -6.610754 0.228955 -0.866957
H -3.228554 0.491055 -0.786457
H -3.428654 -1.942545 -1.148357
H -7.696554 -1.589345 -1.139957
H -7.496754 0.841655 -0.790657
C -5.705254 -3.319745 -1.304357
C -5.828954 -4.520945 -1.389357
C -6.056554 -5.908445 -1.416957
C -7.354654 -6.389345 -1.426757
C -7.616454 -7.761945 -1.386157
C -6.593154 -8.674945 -1.315957
C -5.257954 -8.233645 -1.309957
C -4.159254 -9.118245 -1.220657
C -2.887154 -8.625245 -1.234857
N -2.630554 -7.299945 -1.360757
C -3.628654 -6.440945 -1.425957
C -4.973954 -6.838745 -1.385057
H -8.176854 -5.690845 -1.457457
H -8.641354 -8.100145 -1.396957
H -6.799354 -9.732345 -1.263557
H -4.338954 -10.178345 -1.138457
H -2.019554 -9.276545 -1.145157
H -3.375754 -5.387245 -1.522857
C -0.415854 2.649455 -4.963957
C -0.330154 3.829955 -4.713057
C -0.281754 5.194855 -4.373457
C -0.659154 6.171855 -5.278657
C -0.666854 7.524155 -4.918457
C -0.322854 7.920155 -3.651257
C 0.072446 6.955755 -2.699957
C 0.390846 7.290455 -1.369857
N 0.760446 6.392555 -0.481257
C 0.888946 5.090855 -0.842957
C 0.577146 4.657655 -2.099557
C 0.124046 5.580155 -3.064357
H -0.957554 5.883855 -6.275257
H -0.962454 8.258155 -5.652257
H -0.350954 8.961355 -3.372357
H 0.329346 8.322955 -1.034957
H 1.253846 4.421655 -0.066157
H 0.665646 3.617755 -2.369657
C -0.523154 1.272155 -5.234757
C -0.238754 0.337655 -4.231557
C -0.349954 -1.009945 -4.488457
C -0.744154 -1.455645 -5.755357
C -1.029654 -0.521345 -6.758557
C -0.921954 0.827355 -6.500657
H 0.071846 0.683655 -3.258457
H -0.121554 -1.732545 -3.721657
H -1.332854 -0.865445 -7.736157
H -1.140554 1.547655 -7.274757
C -0.825154 -2.832545 -6.036457
C -0.866354 -4.016845 -6.283157
C -0.840454 -5.374245 -6.650057
C -0.859954 -5.724245 -7.989057
C -0.759654 -7.060745 -8.386857
C -0.619554 -8.065245 -7.461257
C -0.605354 -7.758345 -6.088957
C -0.448454 -8.740845 -5.085057
C -0.464654 -8.377345 -3.770057
N -0.658654 -7.092845 -3.380657
C -0.784254 -6.144145 -4.287557
C -0.743054 -6.404145 -5.666157
H -0.941754 -4.950245 -8.736757
H -0.778554 -7.296345 -9.440057
H -0.518954 -9.093045 -7.772857
H -0.314354 -9.772045 -5.370357
H -0.323454 -9.105445 -2.973357
H -0.934354 -5.127645 -3.930257
