186

Pd -0.028400 6.082700 0.093800
Pd -0.161900 -5.968900 -0.458200
C 6.385000 -2.583000 1.355400
C 5.698400 -3.571500 1.223800
C 4.764700 -4.602900 1.011900
C 4.810200 -5.817300 1.668500
C 3.814600 -6.780800 1.463100
C 2.739900 -6.528600 0.645200
C 2.657800 -5.297400 -0.029300
N 1.575000 -5.033500 -0.806400
C 1.532600 -3.934700 -1.539400
C 2.555100 -2.987700 -1.530500
C 3.621400 -3.172800 -0.683000
C 3.695000 -4.336900 0.099900
H 5.624200 -6.025000 2.345400
H 3.898700 -7.729500 1.969700
H 1.961300 -7.278200 0.471200
H 0.655500 -3.801900 -2.167900
H 2.494800 -2.124000 -2.171400
H 4.417700 -2.448500 -0.612600
C 7.038900 -1.336400 1.442200
C 8.411600 -1.209800 1.758100
C 8.996600 0.024900 1.789800
C 8.255300 1.195500 1.513400
C 8.832800 2.484900 1.520300
C 8.089200 3.596100 1.238500
C 6.711400 3.471600 0.941200
C 6.118900 2.225000 0.934300
C 6.871800 1.070300 1.210400
C 6.287800 -0.207600 1.180800
H 8.990700 -2.097500 1.965000
H 10.047000 0.121200 2.025500
H 9.884600 2.579700 1.749700
H 8.543100 4.575800 1.242300
H 5.069900 2.125600 0.702600
H 5.236600 -0.299800 0.953300
C 5.905900 4.588200 0.638000
C 5.129100 5.470700 0.353700
C 4.134100 6.406500 0.010800
C 4.406900 7.682500 -0.498000
C 3.346300 8.504000 -0.837000
C 2.045800 8.047200 -0.678000
N 1.787900 6.831800 -0.192100
C 2.794200 6.034000 0.156700
H 5.427500 8.009700 -0.621800
H 3.522300 9.493100 -1.228000
H 1.193400 8.666100 -0.935900
H 2.546000 5.057800 0.571400
C 0.881200 -2.159200 6.207300
C 0.771600 -3.134100 5.498000
C 0.613100 -4.194800 4.587300
C 0.874400 -5.510000 4.921800
C 0.697300 -6.536200 3.986400
C 0.287200 -6.265000 2.703600
C 0.025300 -4.937100 2.324600
N -0.367500 -4.670600 1.051800
C -0.697800 -3.439400 0.697500
C -0.621300 -2.361900 1.576600
C -0.171900 -2.581200 2.857500
C 0.159000 -3.882500 3.267200
H 1.209900 -5.747100 5.919500
H 0.888800 -7.553700 4.289500
H 0.129900 -7.063400 1.974500
H -1.039800 -3.299700 -0.327800
H -0.904500 -1.377900 1.242500
H -0.076500 -1.777300 3.570200
C 0.955300 -0.940600 6.912500
C 1.095600 -0.888600 8.319900
C 1.116500 0.315800 8.964900
C 0.993500 1.530700 8.253900
C 0.977200 2.792200 8.889900
C 0.824800 3.946700 8.174200
C 0.695000 3.895900 6.766700
C 0.732500 2.678200 6.117200
C 0.868700 1.480000 6.838700
C 0.857500 0.232500 6.191500
H 1.179100 -1.810300 8.876300
H 1.219500 0.353600 10.040100
H 1.077500 2.830700 9.965300
H 0.801500 4.903500 8.674000
H 0.638200 2.634900 5.043700
H 0.765200 0.201700 5.116700
C 0.487800 5.045100 5.976200
C 0.259800 5.937900 5.192100
C -0.060500 6.832800 4.152400
C -0.675100 8.077500 4.340600
C -1.032100 8.817200 3.227200
C -0.804500 8.304100 1.957200
N -0.207200 7.126300 1.779600
C 0.181200 6.418100 2.839400
H -0.870300 8.440700 5.337500
H -1.503000 9.780600 3.337700
H -1.099700 8.845400 1.066600
H 0.715200 5.482800 2.656300
C -6.566100 2.698000 -1.748100
C -5.881700 3.686900 -1.609900
C -4.950300 4.718900 -1.390600
C -4.996000 5.936400 -2.041400
C -4.002800 6.900600 -1.828400
C -2.929500 6.645900 -1.009300
C -2.847100 5.411500 -0.340900
N -1.765100 5.144800 0.436400
C -1.722500 4.042200 1.163800
C -2.744300 3.094700 1.149200
C -3.809400 3.282800 0.300800
C -3.882700 4.450300 -0.477000
H -5.808600 6.146100 -2.719600
H -4.087000 7.851700 -2.330400
H -2.152500 7.395800 -0.830000
H -0.845500 3.906800 1.791900
H -2.684400 2.228200 1.786300
H -4.605000 2.558100 0.225700
C -7.218700 1.451100 -1.841000
C -8.588400 1.324100 -2.169700
C -9.172700 0.089300 -2.206800
C -8.433900 -1.081100 -1.923000
C -9.011000 -2.370600 -1.934600
C -8.270000 -3.481500 -1.645200
C -6.895100 -3.356700 -1.334900
C -6.302900 -2.110000 -1.323200
C -7.053300 -0.955500 -1.607000
C -6.469800 0.322500 -1.572400
H -9.165600 2.211700 -2.382300
H -10.220800 -0.007300 -2.452400
H -10.060700 -2.465700 -2.174000
H -8.723700 -4.461300 -1.652700
H -5.256100 -2.010300 -1.081700
H -5.420800 0.414900 -1.335100
C -6.092100 -4.473100 -1.024300
C -5.317900 -5.355600 -0.733200
C -4.324700 -6.291200 -0.384700
C -4.599600 -7.568900 0.118700
C -3.540300 -8.390600 0.461400
C -2.239200 -7.932900 0.310400
N -1.979300 -6.715700 -0.170100
C -2.984300 -5.917200 -0.521200
H -5.620600 -7.897300 0.235300
H -3.717800 -9.380900 0.848700
H -1.387800 -8.552200 0.570400
H -2.734600 -4.938800 -0.929800
C -1.159400 2.262500 -6.546100
C -1.033000 3.237900 -5.840300
C -0.856000 4.300600 -4.935500
C -1.119000 5.615500 -5.270100
C -0.923500 6.644300 -4.341200
C -0.494400 6.376100 -3.064100
C -0.231000 5.048500 -2.684800
N 0.178200 4.784800 -1.416600
C 0.511500 3.554100 -1.063400
C 0.422000 2.474500 -1.938800
C -0.046300 2.690700 -3.213400
C -0.381100 3.991400 -3.622000
H -1.470100 5.850300 -6.262900
H -1.116200 7.661400 -4.644800
H -0.322500 7.176200 -2.340300
H 0.866600 3.416900 -0.042400
H 0.709000 1.491000 -1.606200
H -0.154100 1.884900 -3.922200
C -1.251100 1.044200 -7.249700
C -1.430900 0.993300 -8.652700
C -1.469300 -0.210600 -9.297900
C -1.325800 -1.426000 -8.591700
C -1.327300 -2.687000 -9.228900
C -1.154900 -3.842200 -8.518900
C -0.985600 -3.792500 -7.115500
C -1.004600 -2.575300 -6.464200
C -1.161100 -1.376500 -7.180500
C -1.132300 -0.129500 -6.532700
H -1.530500 1.915400 -9.205600
H -1.602600 -0.247500 -10.369800
H -1.458000 -2.724600 -10.301100
H -1.145800 -4.798600 -9.019900
H -0.879600 -2.533000 -5.393900
H -1.009200 -0.099600 -5.461000
C -0.758700 -4.942100 -6.330900
C -0.512300 -5.834500 -5.552000
C -0.173100 -6.726600 -4.515900
C 0.439800 -7.971200 -4.709600
C 0.814500 -8.707100 -3.599500
C 0.604500 -8.191000 -2.327600
N 0.008600 -7.013500 -2.144500
C -0.395100 -6.308200 -3.200500
H 0.620300 -8.337200 -5.708300
H 1.285100 -9.670100 -3.714300
H 0.913300 -8.729500 -1.439900
H -0.926100 -5.372000 -3.012600
