894
Pore!
B 0.004725 -0.000001 0.099888
B -0.006039 0.005528 0.099664
B 0.000920 -0.010522 0.099441
B 0.007596 0.009911 0.099217
B -0.013940 -0.002466 0.098993
B 0.013192 -0.008395 0.098770
B -0.004414 0.016408 0.098546
B -0.008411 -0.016189 0.098322
B 0.018228 0.006657 0.098098
B -0.018959 0.007824 0.097875
B 0.009130 -0.019517 0.097651
B 0.006742 0.021503 0.097427
B -0.020321 -0.011776 0.097204
B 0.023819 -0.005238 0.096980
B -0.014533 0.020666 0.096756
B -0.003358 -0.025890 0.096532
B 0.020580 0.017347 0.096309
B -0.027686 0.001144 0.096085
B 0.020178 -0.020084 0.095861
B -0.001352 0.029182 0.095638
B -0.019184 -0.022986 0.095414
B 0.030364 0.004085 0.095190
B -0.025718 0.017891 0.094966
B 0.007020 -0.031218 0.094743
B 0.016231 0.028329 0.094519
B -0.031721 -0.010120 0.094295
B 0.030789 -0.014228 0.094072
B -0.013335 0.031855 0.093848
B -0.011895 -0.033063 0.093624
B 0.031621 0.016620 0.093400
B -0.035109 0.009253 0.093177
B 0.019940 -0.031017 0.092953
B 0.006337 0.036892 0.092729
B -0.030033 -0.023258 0.092506
B 0.038389 -0.003182 0.092282
B -0.026525 0.028668 0.092058
B 0.000190 -0.039579 0.091834
B 0.026935 0.029694 0.091611
B -0.040430 -0.003748 0.091387
B 0.032736 -0.024849 0.091163
B -0.007448 0.040921 0.090940
B -0.022414 -0.035615 0.090716
B 0.041041 0.011248 0.090492
B -0.038287 0.019645 0.090268
B 0.015117 -0.040785 0.090045
B 0.016570 0.040711 0.089821
B -0.040135 -0.019020 0.089597
B 0.042865 -0.013218 0.089374
B -0.022909 0.039084 0.089150
B -0.009606 -0.044721 0.088926
B 0.037639 0.026738 0.088702
B -0.046245 0.005762 0.088479
B 0.030475 -0.035808 0.088255
B 0.001726 0.047407 0.088031
B -0.033591 -0.034084 0.087808
B 0.048194 0.002463 0.087584
B -0.037518 0.030996 0.087360
B 0.006777 -0.048594 0.087136
B 0.028046 0.040735 0.086913
B -0.048583 -0.011179 0.086689
B 0.043706 -0.024765 0.086465
B -0.015623 0.048149 0.086242
B -0.021167 -0.046401 0.086018
B 0.047291 0.020064 0.085794
B -0.048780 0.017275 0.085570
B 0.024467 -0.046013 0.085347
B 0.013126 0.050810 0.085123
B -0.044309 -0.028795 0.084899
B 0.052470 -0.008756 0.084676
B -0.033000 0.042178 0.084452
B -0.004192 -0.053742 0.084228
B 0.039641 0.037034 0.084004
B -0.054597 -0.000534 0.083781
B 0.040867 -0.036714 0.083557
B -0.005373 0.055015 0.083333
B -0.033408 -0.044463 0.083110
B 0.054990 0.010281 0.082886
B -0.047778 0.029739 0.082662
B 0.015224 -0.054517 0.082438
B 0.025741 0.050773 0.082215
B -0.053584 -0.020163 0.081991
B 0.053422 -0.021446 0.081767
B -0.025048 0.052185 0.081544
B -0.016878 -0.055699 0.081320
B 0.050332 0.029829 0.081096
B -0.057570 0.012067 0.080872
B 0.034472 -0.048035 0.080649
B 0.007059 0.059007 0.080425
B -0.045298 -0.038938 0.080201
B 0.059997 -0.001896 0.079978
B -0.043178 0.042133 0.079754
B 0.003388 -0.060527 0.079530
B 0.038567 0.047146 0.079306
B -0.060578 -0.008754 0.079083
B 0.050813 -0.034627 0.078859
B -0.014149 0.060135 0.078635
B -0.030332 -0.054147 0.078412
B 0.059203 0.019526 0.078188
B -0.057105 0.025708 0.077964
B 0.024845 -0.057785 0.077740
B 0.020798 0.059652 0.077517
B -0.055877 -0.030066 0.077293
B 0.061768 -0.015641 0.077069
B -0.035135 0.053483 0.076846
B -0.010268 -0.063434 0.076622
B 0.050623 0.040003 0.076398
B -0.064619 0.004718 0.076174
B 0.044635 -0.047318 0.075951
B -0.000959 0.065302 0.075727
B -0.043582 -0.048992 0.075503
B 0.065479 0.006713 0.075280
B -0.053027 0.039433 0.075056
B 0.012506 -0.065144 0.074832
B 0.034909 0.056698 0.074609
B -0.064286 -0.018294 0.074385
B 0.059976 -0.030045 0.074161
B -0.024023 0.062898 0.073937
B -0.024870 -0.062834 0.073714
B 0.060994 0.029639 0.073490
B -0.065234 0.019416 0.073266
B 0.035104 -0.058587 0.073043
B 0.013732 0.067146 0.072819
B -0.055680 -0.040374 0.072595
B 0.068557 -0.007867 0.072371
B -0.045397 0.052288 0.072148
B -0.001857 -0.069452 0.071924
B 0.048439 0.050124 0.071700
B -0.069810 -0.004253 0.071477
B 0.054520 -0.044163 0.071253
B -0.010409 0.069616 0.071029
B -0.039481 -0.058551 0.070805
B 0.068874 0.016557 0.070582
B -0.062170 0.034423 0.070358
B 0.022654 -0.067587 0.070134
B 0.029033 0.065340 0.069911
B -0.065750 -0.028654 0.069687
B 0.068037 -0.023355 0.069463
B -0.034501 0.063369 0.069239
B -0.017422 -0.070239 0.069016
B 0.060464 0.040142 0.068792
B -0.071914 0.011277 0.068568
B 0.045535 -0.057056 0.068345
B 0.004973 0.073039 0.068121
B -0.053160 -0.050640 0.067897
B 0.073606 0.001436 0.067673
B -0.055404 0.048797 0.067450
B 0.007907 -0.073609 0.067226
B 0.044006 0.059781 0.067002
B -0.073034 -0.014394 0.066779
B 0.063741 -0.038824 0.066555
B -0.020837 0.071875 0.066331
B -0.033280 -0.067250 0.066107
B 0.070144 0.027179 0.065884
B -0.070269 0.027412 0.065660
B 0.033378 -0.067852 0.065436
B 0.021270 0.072764 0.065213
B -0.065006 -0.039385 0.064989
B 0.074719 -0.014906 0.064765
B -0.045144 0.061616 0.064541
B -0.008360 -0.076115 0.064318
B 0.057714 0.050602 0.064094
B -0.076930 0.001678 0.063870
B 0.055721 -0.053330 0.063647
B -0.005081 0.077147 0.063423
B -0.048486 -0.060460 0.063199
B 0.076766 0.011858 0.062975
B -0.064771 0.043212 0.062752
B 0.018608 -0.075789 0.062528
B 0.037554 0.068611 0.062304
B -0.074212 -0.025281 0.062081
B 0.071954 -0.031558 0.061857
B -0.031816 0.072036 0.061633
B -0.025261 -0.074774 0.061409
B 0.069281 0.038156 0.061186
B -0.077034 0.018705 0.060962
B 0.044257 -0.065970 0.060738
B 0.011948 0.078708 0.060515
B -0.062115 -0.050073 0.060291
B 0.079787 -0.005046 0.060067
B -0.055546 0.057738 0.059843
B 0.001955 -0.080261 0.059620
B 0.052877 0.060628 0.059396
B -0.080113 -0.009005 0.059172
B 0.065282 -0.047571 0.058949
B -0.016041 0.079335 0.058725
B -0.041851 -0.069473 0.058501
B 0.077936 0.023003 0.058277
B -0.073156 0.035754 0.058054
B 0.029844 -0.075928 0.057830
B 0.029334 0.076294 0.057606
B -0.073312 -0.036512 0.057383
B 0.078866 -0.022642 0.057159
B -0.042946 0.070101 0.056935
B -0.015721 -0.080851 0.056711
B 0.066324 0.049090 0.056488
B -0.082222 0.008620 0.056264
B 0.054900 -0.062010 0.056040
B 0.001402 0.082960 0.055817
B -0.057182 -0.060333 0.055593
B 0.083062 0.005873 0.055369
B -0.065336 0.051869 0.055145
B 0.013157 -0.082526 0.054922
B 0.046119 0.069863 0.054698
B -0.081345 -0.020397 0.054474
B 0.073881 -0.039977 0.054251
B -0.027527 0.079520 0.054027
B -0.033480 -0.077360 0.053803
B 0.077068 0.034486 0.053579
B -0.080263 0.026675 0.053356
B 0.041227 -0.074008 0.053132
B 0.019619 0.082556 0.052908
B -0.070353 -0.047700 0.052685
B 0.084228 -0.012370 0.052461
B -0.053844 0.066123 0.052237
B -0.004977 -0.085264 0.052013
B 0.061357 0.059605 0.051790
B -0.085646 -0.002508 0.051566
B 0.064943 -0.056091 0.051342
B -0.010019 0.085360 0.051119
B -0.050356 -0.069817 0.050895
B 0.084415 0.017494 0.050671
B -0.074180 0.044190 0.050447
B 0.024880 -0.082816 0.050224
B 0.037646 0.077990 0.050000
B -0.080566 -0.032125 0.049776
B 0.081221 -0.030779 0.049553
B -0.039162 0.077673 0.049329
B -0.023631 -0.083848 0.049105
B 0.074164 0.045931 0.048881
B -0.085842 0.016253 0.048658
B 0.052387 -0.070068 0.048434
B 0.008708 0.087176 0.048210
B -0.065405 -0.058480 0.047987
B 0.087847 -0.001060 0.047763
B -0.064153 0.060205 0.047539
B 0.006640 -0.087848 0.047315
B 0.054512 0.069356 0.047092
B -0.087169 -0.014337 0.046868
B 0.074053 -0.048374 0.046644
B -0.021964 0.085806 0.046421
B -0.041827 -0.078210 0.046197
B 0.083775 0.029455 0.045973
B -0.081782 0.034916 0.045749
B 0.036759 -0.081093 0.045526
B 0.027702 0.084735 0.045302
B -0.077769 -0.043824 0.045078
B 0.087051 -0.020243 0.044855
B -0.050584 0.073821 0.044631
B -0.012588 -0.088712 0.044407
B 0.069286 0.056981 0.044183
B -0.089695 0.004792 0.043960
B 0.062971 -0.064199 0.043736
B -0.003077 0.089984 0.043512
B -0.058590 -0.068511 0.043289
B 0.089582 0.010954 0.043065
B -0.073547 0.052496 0.042841
B 0.018786 -0.088492 0.042617
B 0.045971 0.078032 0.042394
B -0.086713 -0.026516 0.042170
B 0.081939 -0.039066 0.041946
B -0.034075 0.084251 0.041723
B -0.031827 -0.085237 0.041499
B 0.081129 0.041399 0.041275
B -0.087890 0.024303 0.041051
B 0.048438 -0.077374 0.040828
B 0.016560 0.089871 0.040604
B -0.073003 -0.055141 0.040380
B 0.091169 -0.008663 0.040157
B -0.061445 0.068045 0.039933
B -0.000662 -0.091776 0.039709
B 0.062542 0.067297 0.039485
B -0.091676 -0.007383 0.039262
B 0.072656 -0.056540 0.039038
B -0.015404 0.090863 0.038814
B -0.050076 -0.077483 0.038591
B 0.089348 0.023332 0.038367
B -0.081730 0.043193 0.038143
B 0.031114 -0.087144 0.037919
B 0.035952 0.085359 0.037696
B -0.084257 -0.038693 0.037472
B 0.088345 -0.028411 0.037248
B -0.046002 0.080704 0.037025
B -0.020620 -0.090669 0.036801
B 0.076517 0.052978 0.036577
B -0.092300 0.012634 0.036353
B 0.059575 -0.071730 0.036130
B 0.004523 0.093221 0.035906
B -0.066371 -0.065743 0.035682
B 0.093428 0.003647 0.035459
B -0.071425 0.060475 0.035235
B 0.011821 -0.092923 0.035011
B 0.054094 0.076571 0.034787
B -0.091697 -0.019938 0.034564
B 0.081148 -0.047280 0.034340
B -0.027929 0.089755 0.034116
B -0.040075 -0.085122 0.033893
B 0.087117 0.035726 0.033669
B -0.088451 0.032531 0.033445
B 0.043277 -0.083805 0.033221
B 0.024713 0.091105 0.032998
B -0.079835 -0.050526 0.032774
B 0.093067 -0.016685 0.032550
B -0.057407 0.075231 0.032327
B -0.008500 -0.094326 0.032103
B 0.070034 0.063863 0.031879
B -0.094860 0.000218 0.031655
B 0.069849 -0.064287 0.031432
B -0.008091 0.094660 0.031208
B -0.058026 -0.075322 0.030984
B 0.093732 0.016357 0.030761
B -0.080230 0.051293 0.030537
B 0.024524 -0.092085 0.030313
B 0.044146 0.084530 0.030089
B -0.089723 -0.032533 0.029866
B 0.088193 -0.036645 0.029642
B -0.040313 0.086658 0.029418
B -0.028838 -0.091194 0.029195
B 0.082918 0.047799 0.028971
B -0.093500 0.020780 0.028747
B 0.054940 -0.078536 0.028523
B 0.012542 0.095087 0.028300
B -0.073535 -0.061684 0.028076
B 0.095948 -0.004190 0.027852
B -0.067971 0.067948 0.027629
B 0.004218 -0.096080 0.027405
B 0.061826 0.073745 0.027181
B -0.095470 -0.012622 0.026957
B 0.078968 -0.055217 0.026734
B -0.020949 0.094119 0.026510
B -0.048165 -0.083604 0.026286
B 0.092041 0.029130 0.026063
B -0.087606 0.040719 0.025839
B 0.037110 -0.089256 0.025615
B 0.032942 0.090938 0.025391
B -0.085776 -0.044829 0.025168
B 0.093580 -0.024900 0.024944
B -0.052220 0.081622 0.024720
B -0.016645 -0.095515 0.024497
B 0.076831 0.059221 0.024273
B -0.096718 0.008236 0.024049
B 0.065785 -0.071445 0.023826
B -0.000253 0.097174 0.023602
B -0.065495 -0.071863 0.023378
B 0.096885 0.008754 0.023154
B -0.077401 0.059023 0.022931
B 0.017207 -0.095856 0.022707
B 0.052084 0.082349 0.022483
B -0.094086 -0.025552 0.022260
B 0.086676 -0.044736 0.022036
B -0.033717 0.091583 0.021812
B -0.037026 -0.090351 0.021588
B 0.088372 0.041633 0.021365
B -0.093338 0.029011 0.021141
B 0.049246 -0.084482 0.020917
B 0.020758 0.095606 0.020694
B -0.079932 -0.056502 0.020470
B 0.097146 -0.012336 0.020246
B -0.063335 0.074753 0.020022
B -0.003801 -0.097948 0.019799
B 0.068991 0.069689 0.019575
B -0.097996 -0.004785 0.019351
B 0.075519 -0.062695 0.019128
B -0.013348 0.097285 0.018904
B -0.055903 -0.080786 0.018680
B 0.095827 0.021817 0.018456
B -0.085439 0.048664 0.018233
B 0.030135 -0.093635 0.018009
B 0.041040 0.089437 0.017785
B -0.090719 -0.038241 0.017562
B 0.092756 -0.033095 0.017338
B -0.046064 0.087094 0.017114
B -0.024880 -0.095373 0.016890
B 0.082796 0.053540 0.016667
B -0.097259 0.016456 0.016443
B 0.060617 -0.077861 0.016219
B 0.007894 0.098395 0.015996
B -0.072318 -0.067245 0.015772
B 0.098778 0.000735 0.015548
B -0.073364 0.066205 0.015324
B 0.009373 -0.098409 0.015101
B 0.059577 0.078922 0.014877
B -0.097280 -0.017957 0.014653
B 0.083883 -0.052488 0.014430
B -0.026412 0.095397 0.014206
B -0.044985 -0.088212 0.013982
B 0.092780 0.034669 0.013758
B -0.091866 0.037120 0.013535
B 0.042672 -0.089453 0.013311
B 0.028962 0.094813 0.013087
B -0.085432 -0.050363 0.012864
B 0.097037 -0.020578 0.012640
B -0.057674 0.080745 0.012416
B -0.012024 -0.098524 0.012192
B 0.075433 0.064545 0.011969
B -0.099254 0.003363 0.011745
B 0.070928 -0.069542 0.011521
B -0.005332 0.099216 0.011298
B -0.063109 -0.076780 0.011074
B 0.098417 0.013989 0.010850
B -0.082045 0.056179 0.010626
B 0.022549 -0.096868 0.010403
B 0.048812 0.086679 0.010179
B -0.094571 -0.030949 0.009955
B 0.090654 -0.041070 0.009732
B -0.039118 0.091539 0.009508
B -0.033003 -0.093941 0.009284
B 0.087804 0.046987 0.009060
B -0.096508 0.024670 0.008837
B 0.054503 -0.083397 0.008613
B 0.016142 0.098330 0.008389
B -0.078344 -0.061612 0.008166
B 0.099399 -0.007491 0.007942
B -0.068252 0.072680 0.007718
B 0.001227 -0.099712 0.007494
B 0.066455 0.074366 0.007271
B -0.099257 -0.009946 0.007047
B 0.079915 -0.059722 0.006823
B -0.018594 0.098034 0.006600
B -0.052524 -0.084859 0.006376
B 0.096059 0.027097 0.006152
B -0.089152 0.044913 0.005928
B 0.035399 -0.093351 0.005705
B 0.036954 0.092757 0.005481
B -0.089922 -0.043439 0.005257
B 0.095654 -0.028714 0.005034
B -0.051148 0.085796 0.004810
B -0.020248 -0.097823 0.004586
B 0.081011 0.058461 0.004362
B -0.099240 0.011616 0.004139
B 0.065330 -0.075607 0.003915
B 0.002894 0.099889 0.003691
B -0.069620 -0.071705 0.003468
B 0.099773 0.005847 0.003244
B -0.077530 0.063090 0.003020
B 0.014547 -0.098897 0.002796
B 0.056075 0.082756 0.002573
B -0.097260 -0.023144 0.002349
B 0.087348 -0.048634 0.002125
B -0.031563 0.094869 0.001902
B -0.040817 -0.091278 0.001678
B 0.091751 0.039736 0.001454
B -0.094504 0.032679 0.001230
B 0.047606 -0.087935 0.001007
B 0.024291 0.097000 0.000783
B -0.083441 -0.055117 0.000559
B 0.098753 -0.015722 0.000336
B -0.062204 0.078300 0.000112
B -0.007030 -0.099754 -0.000112
B 0.072560 0.068807 -0.000336
B -0.099987 -0.001722 -0.000559
B 0.074883 -0.066269 -0.000783
B -0.010458 0.099446 -0.001007
B -0.059468 -0.080390 -0.001230
B 0.098144 0.019107 -0.001454
B -0.085278 0.052205 -0.001678
B 0.027610 -0.096094 -0.001902
B 0.044544 0.089504 -0.002125
B -0.093305 -0.035906 -0.002349
B 0.093044 -0.036548 -0.002573
B -0.043923 0.089795 -0.002796
B -0.028272 -0.095875 -0.003020
B 0.085597 0.051594 -0.003244
B -0.097967 0.019775 -0.003468
B 0.058869 -0.080750 -0.003691
B 0.011131 0.099300 -0.003915
B -0.075283 -0.065696 -0.004139
B 0.099873 -0.002410 -0.004362
B -0.072014 0.069234 -0.004586
B 0.006327 -0.099684 -0.004810
B 0.062658 0.077770 -0.005034
B -0.098729 -0.015018 -0.005257
B 0.082929 -0.055609 -0.005481
B -0.023588 0.097010 -0.005705
B -0.048136 -0.087454 -0.005928
B 0.094550 0.031967 -0.006152
B -0.091304 0.040291 -0.006376
B 0.040097 -0.091371 -0.006600
B 0.032143 0.094445 -0.006823
B -0.087490 -0.047921 -0.007047
B 0.096861 -0.023759 -0.007271
B -0.055370 0.082935 -0.007494
B -0.015197 -0.098538 -0.007718
B 0.077747 0.062383 -0.007942
B -0.099456 0.006517 -0.008166
B 0.068914 -0.071973 -0.008389
B -0.002203 0.099603 -0.008613
B -0.065649 -0.074918 -0.008837
B 0.098988 0.010895 -0.009060
B -0.080339 0.058820 -0.009284
B 0.019497 -0.097619 -0.009508
B 0.051547 0.085133 -0.009732
B -0.095501 -0.027948 -0.009955
B 0.089272 -0.043891 -0.010179
B -0.036176 0.092645 -0.010403
B -0.035903 -0.092728 -0.010626
B 0.089083 0.044112 -0.010850
B -0.095466 0.027642 -0.011074
B 0.051703 -0.084847 -0.011298
B 0.019178 0.097464 -0.011521
B -0.079962 -0.058896 -0.011745
B 0.098713 -0.010582 -0.011969
B -0.065628 0.074462 -0.012192
B -0.001912 -0.099209 -0.012416
B 0.068399 0.071842 -0.012640
B -0.098941 -0.006769 -0.012864
B 0.077499 -0.061824 -0.013087
B -0.015385 0.097908 -0.013311
B -0.054781 -0.082561 -0.013535
B 0.096127 0.023867 -0.013758
B -0.086982 0.047319 -0.013982
B 0.032158 -0.093617 -0.014206
B 0.039506 0.090723 -0.014430
B -0.090389 -0.040196 -0.014653
B 0.093765 -0.031406 -0.014877
B -0.047914 0.086466 -0.015101
B -0.023074 -0.096089 -0.015324
B 0.081886 0.055247 -0.015548
B -0.097670 0.014571 -0.015772
B 0.062148 -0.076691 -0.015996
B 0.005970 0.098494 -0.016219
B -0.070913 -0.068567 -0.016443
B 0.098562 0.002658 -0.016667
B -0.074449 0.064594 -0.016890
B 0.011254 -0.097880 -0.017114
B 0.057790 0.079745 -0.017338
B -0.096446 -0.019756 -0.017562
B 0.084421 -0.050560 -0.017785
B -0.028091 0.094269 -0.018009
B -0.042952 -0.088448 -0.018233
B 0.091373 0.036191 -0.018456
B -0.091788 0.035021 -0.018680
B 0.044000 -0.087787 -0.018904
B 0.026837 0.094412 -0.019128
B -0.083531 -0.051465 -0.019351
B 0.096308 -0.018467 -0.019575
B -0.058519 0.078637 -0.019799
B -0.009969 -0.097468 -0.020022
B 0.073149 0.065105 -0.020246
B -0.097875 0.001405 -0.020470
B 0.071181 -0.067117 -0.020694
B -0.007152 0.097525 -0.020917
B -0.060580 -0.076705 -0.021141
B 0.096429 0.015632 -0.021365
B -0.081628 0.053584 -0.021588
B 0.023976 -0.094601 -0.021812
B 0.046193 0.085908 -0.022036
B -0.092049 -0.032125 -0.022260
B 0.089522 -0.038469 -0.022483
B -0.040009 0.088790 -0.022707
B -0.030465 -0.092447 -0.022931
B 0.084859 0.047563 -0.023154
B -0.094655 0.022238 -0.023378
B 0.054738 -0.080291 -0.023602
B 0.013860 0.096125 -0.023826
B -0.075115 -0.061482 -0.024049
B 0.096856 -0.005401 -0.024273
B -0.067737 0.069368 -0.024497
B 0.003082 -0.096848 -0.024720
B 0.063104 0.073452 -0.024944
B -0.096095 -0.011527 -0.025168
B 0.078591 -0.056377 -0.025391
B -0.019862 0.094601 -0.025615
B -0.049232 -0.083121 -0.025839
B 0.092386 0.028018 -0.026063
B -0.086999 0.041720 -0.026286
B 0.035940 -0.089473 -0.026510
B 0.033909 0.090195 -0.026734
B -0.085880 -0.043573 -0.026957
B 0.092691 -0.025864 -0.027181
B -0.050849 0.081630 -0.027405
B -0.017640 -0.094476 -0.027629
B 0.076768 0.057710 -0.027852
B -0.095529 0.009296 -0.028076
B 0.064111 -0.071335 -0.028300
B 0.000906 0.095841 -0.028523
B -0.065368 -0.070009 -0.028747
B 0.095417 0.007462 -0.028971
B -0.075350 0.058910 -0.029195
B 0.015751 -0.094268 -0.029418
B 0.052020 0.080093 -0.029642
B -0.092398 -0.023901 -0.029866
B 0.084208 -0.044756 -0.030089
B -0.031842 0.089818 -0.030313
B -0.037169 -0.087672 -0.030537
B 0.086557 0.039509 -0.030761
B -0.090450 0.029314 -0.030984
B 0.046852 -0.082649 -0.031208
B 0.021259 0.092519 -0.031432
B -0.078116 -0.053818 -0.031655
B 0.093874 -0.013072 -0.031879
B -0.060347 0.072992 -0.032103
B -0.004810 -0.094510 -0.032327
B 0.067326 0.066386 -0.032550
B -0.094416 -0.003470 -0.032774
B 0.071898 -0.061168 -0.032998
B -0.011693 0.093592 -0.033221
B -0.054559 -0.076846 -0.033445
B 0.092054 0.019794 -0.033669
B -0.081185 0.047547 -0.033893
B 0.027716 -0.089821 -0.034116
B 0.040196 0.084880 -0.034340
B -0.086905 -0.035405 -0.034564
B 0.087913 -0.032568 -0.034787
B -0.042793 0.083325 -0.035011
B -0.024715 -0.090266 -0.035235
B 0.079120 0.049820 -0.035459
B -0.091916 0.016694 -0.035682
B 0.056442 -0.074330 -0.035906
B 0.008577 0.092849 -0.036130
B -0.068984 -0.062611 -0.036353
B 0.093066 -0.000430 -0.036577
B -0.068275 0.063123 -0.036801
B 0.007692 -0.092575 -0.037025
B 0.056801 0.073387 -0.037248
B -0.091373 -0.015729 -0.037472
B 0.077918 -0.050074 -0.037696
B -0.023613 0.089468 -0.037919
B -0.042987 -0.081839 -0.038143
B 0.086886 0.031278 -0.038367
B -0.085114 0.035592 -0.038591
B 0.038674 -0.083652 -0.038814
B 0.027955 0.087717 -0.039038
B -0.079788 -0.045748 -0.039262
B 0.089637 -0.020141 -0.039485
B -0.052441 0.075321 -0.039709
B -0.012204 -0.090866 -0.039933
B 0.070297 0.058696 -0.040157
B -0.091391 0.004200 -0.040380
B 0.064476 -0.064760 -0.040604
B -0.003800 0.091206 -0.040828
B -0.058748 -0.069742 -0.041051
B 0.090323 0.011729 -0.041275
B -0.074447 0.052306 -0.041499
B 0.019535 -0.088756 -0.041723
B 0.045492 0.078553 -0.041946
B -0.086513 -0.027162 -0.042170
B 0.082039 -0.038366 -0.042394
B -0.034543 0.083610 -0.042617
B -0.030976 -0.084885 -0.042841
B 0.080080 0.041619 -0.043065
B -0.087064 0.023377 -0.043289
B 0.048343 -0.075957 -0.043512
B 0.015637 0.088557 -0.043736
B -0.071269 -0.054670 -0.043960
B 0.089365 -0.007820 -0.044183
B -0.060544 0.066050 -0.044407
B 0.000021 -0.089489 -0.044631
B 0.060352 0.065919 -0.044855
B -0.088922 -0.007829 -0.045078
B 0.070761 -0.054224 -0.045302
B -0.015535 0.087670 -0.045526
B -0.047709 -0.075042 -0.045749
B 0.085752 0.023077 -0.045973
B -0.078722 0.040855 -0.046197
B 0.030403 -0.083191 -0.046421
B 0.033725 0.081771 -0.046644
B -0.080003 -0.037464 -0.046868
B 0.084178 -0.026380 -0.047092
B -0.044197 0.076210 -0.047315
B -0.018870 -0.085932 -0.047539
B 0.071855 0.050547 -0.047763
B -0.087013 0.011250 -0.047987
B 0.056476 -0.066978 -0.048210
B 0.003588 0.087413 -0.048434
B -0.061611 -0.061944 -0.048658
B 0.087142 0.004052 -0.048881
B -0.066902 0.055795 -0.049105
B 0.011620 -0.086208 -0.049329
B 0.049586 0.071312 -0.049553
B -0.084614 -0.019060 -0.049776
B 0.075149 -0.043038 -0.050000
B -0.026308 0.082374 -0.050224
B -0.036196 -0.078392 -0.050447
B 0.079516 0.033304 -0.050671
B -0.081011 0.029111 -0.050895
B 0.040003 -0.076069 -0.051119
B 0.021847 0.082984 -0.051342
B -0.072058 -0.046359 -0.051566
B 0.084309 -0.014467 -0.051790
B -0.052317 0.067511 -0.052013
B -0.007020 -0.084984 -0.052237
B 0.062475 0.057829 -0.052461
B -0.084998 -0.000439 -0.052685
B 0.062862 -0.056998 -0.052908
B -0.007844 0.084353 -0.053132
B -0.051116 -0.067385 -0.053356
B 0.083064 0.015134 -0.053579
B -0.071357 0.044874 -0.053803
B 0.022261 -0.081152 -0.054027
B 0.038331 0.074748 -0.054251
B -0.078626 -0.029174 -0.054474
B 0.077542 -0.031544 -0.054698
B -0.035812 0.075506 -0.054922
B -0.024559 -0.079725 -0.055145
B 0.071829 0.042123 -0.055369
B -0.081278 0.017429 -0.055593
B 0.048066 -0.067631 -0.055817
B 0.010217 0.082188 -0.056040
B -0.062942 -0.053602 -0.056264
B 0.082460 -0.002986 -0.056488
B -0.058683 0.057795 -0.056711
B 0.004217 -0.082102 -0.056935
B 0.052245 0.063269 -0.057159
B -0.081112 -0.011340 -0.057383
B 0.067334 -0.046339 -0.057606
B -0.018319 0.079499 -0.057830
B -0.040121 -0.070855 -0.058054
B 0.077288 0.025096 -0.058277
B -0.073801 0.033636 -0.058501
B 0.031629 -0.074505 -0.058725
B 0.026945 0.076150 -0.058949
B -0.071168 -0.037872 -0.059172
B 0.077894 -0.020106 -0.059396
B -0.043771 0.067303 -0.059620
B -0.013166 -0.079029 -0.059843
B 0.062954 0.049277 -0.060067
B -0.079545 0.006177 -0.060291
B 0.054360 -0.058162 -0.060515
B -0.000800 0.079436 -0.060738
B -0.052960 -0.058986 -0.060962
B 0.078718 0.007704 -0.061186
B -0.063115 0.047389 -0.061409
B 0.014491 -0.077404 -0.061633
B 0.041502 0.066715 -0.061857
B -0.075504 -0.021111 -0.062081
B 0.069770 -0.035355 -0.062304
B -0.027508 0.073032 -0.062528
B -0.028988 -0.072265 -0.062752
B 0.070020 0.033627 -0.062975
B -0.074177 0.022450 -0.063199
B 0.039432 -0.066502 -0.063423
B 0.015802 0.075493 -0.063647
B -0.062502 -0.044884 -0.063870
B 0.076215 -0.009101 -0.064094
B -0.049934 0.058052 -0.064318
B -0.002394 -0.076347 -0.064541
B 0.053198 0.054544 -0.064765
B -0.075886 -0.004273 -0.064989
B 0.058688 -0.047988 -0.065213
B -0.010838 0.074837 -0.065436
B -0.042457 -0.062342 -0.065660
B 0.073222 0.017246 -0.065884
B -0.065475 0.036649 -0.066107
B 0.023456 -0.071063 -0.066331
B 0.030620 0.068063 -0.066555
B -0.068376 -0.029425 -0.066779
B 0.070098 -0.024424 -0.067002
B -0.035100 0.065182 -0.067226
B -0.018104 -0.071575 -0.067450
B 0.061521 0.040436 -0.067673
B -0.072480 0.011708 -0.067897
B 0.045401 -0.057429 -0.068121
B 0.005294 0.072807 -0.068345
B -0.052937 -0.049965 -0.068568
B 0.072568 0.001081 -0.068792
B -0.054086 0.048081 -0.069016
B 0.007376 -0.071775 -0.069239
B 0.042910 0.057734 -0.069463
B -0.070433 -0.013545 -0.069687
B 0.060892 -0.037474 -0.069911
B -0.019532 0.068554 -0.070134
B -0.031812 -0.063546 -0.070358
B 0.066168 0.025289 -0.070582
B -0.065671 0.025967 -0.070805
B 0.030779 -0.063305 -0.071029
B 0.019996 0.067253 -0.071253
B -0.059983 -0.035966 -0.071477
B 0.068294 -0.013952 -0.071700
B -0.040804 0.056233 -0.071924
B -0.007877 -0.068796 -0.072148
B 0.052097 0.045254 -0.072371
B -0.068754 0.001816 -0.072595
B 0.049294 -0.047617 -0.072819
B -0.004175 0.068171 -0.073043
B -0.042825 -0.052900 -0.073266
B 0.067067 0.010043 -0.073490
B -0.056041 0.037762 -0.073714
B 0.015752 -0.065461 -0.073937
B 0.032478 0.058694 -0.074161
B -0.063366 -0.021261 -0.074385
B 0.060852 -0.027024 -0.074609
B -0.026521 0.060801 -0.074832
B -0.021439 -0.062508 -0.075056
B 0.057802 0.031488 -0.075280
B -0.063648 0.015765 -0.075503
B 0.036134 -0.054402 -0.075727
B 0.010058 0.064266 -0.075951
B -0.050629 -0.040430 -0.076174
B 0.064373 -0.004369 -0.076398
B -0.044338 0.046513 -0.076622
B 0.001263 -0.063979 -0.076846
B 0.042102 0.047827 -0.077069
B -0.063087 -0.006797 -0.077293
B 0.050884 -0.037440 -0.077517
B -0.012182 0.061709 -0.077740
B -0.032562 -0.053494 -0.077964
B 0.059871 0.017371 -0.078188
B -0.055634 0.027508 -0.078412
B 0.022333 -0.057599 -0.078635
B 0.022330 0.057292 -0.078859
B -0.054913 -0.027034 -0.079083
B 0.058468 -0.017078 -0.079306
B -0.031431 0.051838 -0.079530
B -0.011788 -0.059165 -0.079754
B 0.048412 0.035489 -0.079978
B -0.059379 0.006502 -0.080201
B 0.039187 -0.044677 -0.080425
B 0.001271 0.059110 -0.080649
B -0.040660 -0.042506 -0.080872
B 0.058379 0.003857 -0.081096
B -0.045416 0.036396 -0.081320
B 0.008849 -0.057205 -0.081544
B 0.031935 0.047896 -0.081767
B -0.055597 -0.013669 -0.081991
B 0.049940 -0.027321 -0.082215
B -0.018270 0.053573 -0.082438
B -0.022591 -0.051545 -0.082662
B 0.051168 0.022614 -0.082886
B -0.052696 0.017782 -0.083110
B 0.026677 -0.048413 -0.083333
B 0.012946 0.053389 -0.083557
B -0.045333 -0.030432 -0.083781
B 0.053636 -0.008130 -0.084004
B -0.033845 0.041955 -0.084228
B -0.003368 -0.053448 -0.084452
B 0.038325 0.036890 -0.084676
B -0.052827 -0.001304 -0.084899
B 0.039556 -0.034485 -0.085123
B -0.005838 0.051786 -0.085347
B -0.030465 -0.041831 -0.085570
B 0.050350 0.010192 -0.085794
B -0.043696 0.026302 -0.086018
B 0.014340 -0.048547 -0.086242
B 0.022045 0.045139 -0.086465
B -0.046392 -0.018251 -0.086689
B 0.046165 -0.017739 -0.086913
B -0.021888 0.043911 -0.087136
B -0.013418 -0.046780 -0.087360
B 0.041143 0.025220 -0.087584
B -0.046978 0.009118 -0.087808
B 0.028229 -0.038125 -0.088031
B 0.004888 0.046766 -0.088255
B -0.034884 -0.030901 -0.088479
B 0.046163 -0.000770 -0.088702
B -0.033211 0.031454 -0.088926
B 0.003205 -0.045190 -0.089150
B 0.027881 0.035140 -0.089374
B -0.043858 -0.007007 -0.089597
B 0.036687 -0.024209 -0.089821
B -0.010593 0.042187 -0.090045
B -0.020470 -0.037852 -0.090268
B 0.040210 0.013930 -0.090492
B -0.038625 0.016700 -0.090716
B 0.016996 -0.037962 -0.090940
B 0.012950 0.039005 -0.091163
B -0.035466 -0.019770 -0.091387
B 0.039006 -0.009261 -0.091611
B -0.022223 0.032751 -0.091834
B -0.005667 -0.038643 -0.092058
B 0.029864 0.024331 -0.092282
B -0.037922 0.002201 -0.092506
B 0.026087 -0.026844 -0.092729
B -0.001092 0.036858 -0.092953
B -0.023726 -0.027484 -0.093177
B 0.035479 0.004172 -0.093400
B -0.028506 0.020544 -0.093624
B 0.007014 -0.033814 -0.093848
B 0.017349 0.029144 -0.094072
B -0.031885 -0.009590 -0.094295
B 0.029406 -0.014188 -0.094519
B -0.011862 0.029717 -0.094743
B -0.011096 -0.029298 -0.094966
B 0.027353 0.013800 -0.095190
B -0.028820 0.008111 -0.095414
B 0.015385 -0.024833 -0.095638
B 0.005286 0.027975 -0.095861
B -0.022188 -0.016599 -0.096085
B 0.026783 -0.002670 -0.096309
B -0.017409 0.019455 -0.096532
B -0.000301 -0.025263 -0.096756
B 0.016683 0.017789 -0.096980
B -0.023419 -0.001778 -0.097204
B 0.017720 -0.013923 -0.097427
B -0.003506 0.021260 -0.097651
B -0.011213 -0.017173 -0.097875
B 0.018798 0.004816 -0.098098
B -0.016091 0.008597 -0.098322
B 0.005637 -0.016029 -0.098546
B 0.006134 0.014383 -0.098770
B -0.012892 -0.005848 -0.098993
B 0.011869 -0.003879 -0.099217
B -0.005191 0.009199 -0.099441
B -0.001855 -0.007974 -0.099664
B 0.003897 0.002673 -0.099888
