194

Pd 0.698000 5.285300 0.968000
Pd -0.339900 -5.452900 -0.859000
C 6.319700 -2.034600 0.804800
C 5.590200 -2.979400 0.600600
C 4.652400 -3.999700 0.371100
C 4.795000 -5.268300 0.904600
C 3.815500 -6.245400 0.702100
C 2.662200 -5.962600 0.009100
C 2.481200 -4.682500 -0.539500
N 1.325700 -4.393400 -1.193800
C 1.182400 -3.234500 -1.813200
C 2.172800 -2.255300 -1.806000
C 3.317800 -2.472800 -1.075700
C 3.495500 -3.696200 -0.412000
H 5.675600 -5.503800 1.481700
H 3.972300 -7.231500 1.110400
H 1.894100 -6.722100 -0.158000
H 0.242400 -3.080400 -2.338800
H 2.031600 -1.342900 -2.361000
H 4.097800 -1.730200 -1.010300
C 7.109800 -0.897100 1.056300
C 8.448100 -1.032600 1.467900
C 9.226900 0.070900 1.741000
C 8.650000 1.329000 1.607200
N 9.186200 2.567600 1.839900
C 8.240600 3.524400 1.595800
C 8.316900 4.906700 1.710100
C 7.195000 5.646000 1.402500
C 5.997400 5.041200 0.983200
C 5.925600 3.654500 0.869300
C 7.041400 2.895300 1.177700
C 7.304300 1.480500 1.187400
C 6.534200 0.365900 0.907700
H 8.867100 -2.022600 1.568500
H 10.253500 -0.040700 2.055700
H 10.129700 2.744800 2.142900
H 9.225300 5.390800 2.034100
H 7.235100 6.718100 1.516400
H 5.033200 3.171300 0.507400
H 5.507600 0.463500 0.594800
C 4.832300 5.875000 0.670100
C 4.958400 7.142400 0.088100
C 3.827100 7.895500 -0.168100
C 2.580800 7.368400 0.129300
N 2.451900 6.152600 0.658900
C 3.537200 5.432300 0.941100
H 5.933400 7.523900 -0.170200
H 3.906700 8.878000 -0.604300
H 1.670500 7.930500 -0.049900
H 3.372700 4.470900 1.425800
C 1.278900 -2.102500 5.943400
C 1.064200 -2.985900 5.143200
C 0.822400 -3.978700 4.179400
C 1.183900 -5.298000 4.390700
C 0.946400 -6.271500 3.416600
C 0.375500 -5.943600 2.209800
C 0.003300 -4.613600 1.956400
N -0.546200 -4.291300 0.755600
C -0.984000 -3.064200 0.529200
C -0.864500 -2.043000 1.468800
C -0.250400 -2.311700 2.670200
C 0.194100 -3.613200 2.948100
H 1.648700 -5.575400 5.323900
H 1.221400 -7.293800 3.624200
H 0.174000 -6.702200 1.451200
H -1.450600 -2.884700 -0.438800
H -1.241300 -1.061200 1.234900
H -0.106800 -1.550300 3.420800
C 1.518600 -1.020000 6.810400
C 1.974800 -1.236600 8.123700
C 2.225900 -0.184100 8.977800
C 2.017800 1.107800 8.506600
N 2.200900 2.313500 9.131100
C 1.874800 3.325700 8.270500
C 1.902500 4.703400 8.449600
C 1.510000 5.505100 7.398000
C 1.094900 4.966500 6.169000
C 1.069300 3.584900 5.993700
C 1.458600 2.765600 7.037600
C 1.552500 1.338800 7.187900
C 1.303500 0.275800 6.339500
H 2.129500 -2.249600 8.463500
H 2.576600 -0.360700 9.983400
H 2.520100 2.434600 10.078200
H 2.222200 5.138400 9.384100
H 1.549200 6.576600 7.519100
H 0.709600 3.146400 5.077700
H 0.957200 0.438300 5.332600
C 0.669000 5.843100 5.073000
C -0.046500 7.027100 5.287800
C -0.457000 7.783800 4.205300
C -0.183600 7.337900 2.921200
N 0.497000 6.213800 2.710100
C 0.936400 5.499600 3.748100
H -0.290900 7.335700 6.292000
H -1.003300 8.701600 4.350800
H -0.507700 7.891800 2.048200
H 1.554700 4.630200 3.517800
C -5.919700 1.885800 -0.838000
C -5.192700 2.828700 -0.616900
C -4.258100 3.847300 -0.366800
C -4.377900 5.111100 -0.917000
C -3.401100 6.086300 -0.693300
C -2.270800 5.805000 0.037300
C -2.112800 4.529200 0.603000
N -0.977900 4.240500 1.292900
C -0.860200 3.088900 1.930200
C -1.856500 2.115600 1.906500
C -2.977400 2.330300 1.138800
C -3.128000 3.546700 0.455600
H -5.238900 5.344500 -1.523900
H -3.541200 7.069100 -1.115200
H -1.504700 6.563400 0.222000
H 0.063000 2.936500 2.484700
H -1.737800 1.210000 2.477700
H -3.759100 1.591100 1.058400
C -6.707100 0.750200 -1.106100
C -8.033100 0.889200 -1.554900
C -8.809300 -0.212500 -1.842200
C -8.242400 -1.472400 -1.684700
N -8.778600 -2.710000 -1.922200
C -7.844800 -3.669700 -1.645800
C -7.925900 -5.052600 -1.749500
C -6.816400 -5.795100 -1.406500
C -5.626400 -5.192700 -0.963600
C -5.549700 -3.805500 -0.860000
C -6.653400 -3.043200 -1.202100
C -6.908900 -1.627200 -1.228800
C -6.141400 -0.514300 -0.935100
H -8.444600 1.880400 -1.672700
H -9.826600 -0.098200 -2.185000
H -9.714800 -2.885000 -2.248100
H -8.828600 -5.534700 -2.091900
H -6.859500 -6.868200 -1.510500
H -4.663700 -3.324200 -0.480100
H -5.124100 -0.614400 -0.593700
C -4.473200 -6.028900 -0.614400
C -4.618400 -7.285400 -0.013700
C -3.496500 -8.039000 0.279500
C -2.241400 -7.523600 -0.001600
N -2.094800 -6.319300 -0.551800
C -3.170800 -5.598300 -0.868300
H -5.600900 -7.657300 0.230200
H -3.590100 -9.012900 0.731800
H -1.338600 -8.086500 0.208300
H -2.992300 -4.646900 -1.368600
C -0.773200 1.918600 -5.873600
C -0.577700 2.802100 -5.068600
C -0.357900 3.796800 -4.101500
C -0.699600 5.118400 -4.330500
C -0.482900 6.094600 -3.354300
C 0.048100 5.767600 -2.129100
C 0.399400 4.435600 -1.857700
N 0.911600 4.114900 -0.640200
C 1.329300 2.884300 -0.394100
C 1.223500 1.858300 -1.330000
C 0.647900 2.126700 -2.550500
C 0.227500 3.431500 -2.849100
H -1.132200 5.395500 -5.279200
H -0.741500 7.118300 -3.575000
H 0.233500 6.528100 -1.369100
H 1.767700 2.705700 0.587500
H 1.581400 0.873700 -1.078900
H 0.517000 1.362400 -3.300500
C -0.993900 0.835700 -6.745100
C -1.410800 1.052200 -8.071500
C -1.645700 -0.000600 -8.929700
C -1.461300 -1.292900 -8.449500
N -1.638100 -2.498900 -9.075200
C -1.345200 -3.511200 -8.202700
C -1.382400 -4.889200 -8.377600
C -1.026700 -5.690800 -7.312800
C -0.638200 -5.151800 -6.075200
C -0.602600 -3.769900 -5.904400
C -0.956700 -2.950700 -6.960900
C -1.034100 -1.523700 -7.117900
C -0.801100 -0.460400 -6.265500
H -1.548400 2.065400 -8.418000
H -1.966700 0.175900 -9.945200
H -1.932900 -2.620300 -10.030000
H -1.681500 -5.324500 -9.318600
H -1.074700 -6.762200 -7.431100
H -0.261600 -3.331500 -4.981200
H -0.484700 -0.623000 -5.248800
C -0.250100 -6.028500 -4.965500
C 0.451500 -7.224600 -5.158000
C 0.825000 -7.982200 -4.062700
C 0.531300 -7.524200 -2.787600
N -0.134000 -6.387000 -2.597500
C -0.540400 -5.673100 -3.648500
H 0.713600 -7.542600 -6.154700
H 1.358600 -8.909900 -4.191400
H 0.825200 -8.079300 -1.904400
H -1.150000 -4.793600 -3.436300
