194

Pd 0.490351 5.368591 0.940631
Pd -0.547549 -5.369609 -0.886369
C 6.112051 -1.951309 0.777431
C 5.382551 -2.896109 0.573231
C 4.444751 -3.916409 0.343731
C 4.587351 -5.185009 0.877231
C 3.607851 -6.162109 0.674731
C 2.454551 -5.879309 -0.018269
C 2.273551 -4.599209 -0.566869
N 1.118051 -4.310109 -1.221169
C 0.974751 -3.151209 -1.840569
C 1.965151 -2.172009 -1.833369
C 3.110151 -2.389509 -1.103069
C 3.287851 -3.612909 -0.439369
H 5.467951 -5.420509 1.454331
H 3.764651 -7.148209 1.083031
H 1.686451 -6.638809 -0.185369
H 0.034751 -2.997109 -2.366169
H 1.823951 -1.259609 -2.388369
H 3.890151 -1.646909 -1.037669
C 6.902151 -0.813809 1.028931
C 8.240451 -0.949309 1.440531
C 9.019251 0.154191 1.713631
C 8.442351 1.412291 1.579831
N 8.978551 2.650891 1.812531
C 8.032951 3.607691 1.568431
C 8.109251 4.989991 1.682731
C 6.987351 5.729291 1.375131
C 5.789751 5.124491 0.955831
C 5.717951 3.737791 0.841931
C 6.833751 2.978591 1.150331
C 7.096651 1.563791 1.160031
C 6.326551 0.449191 0.880331
H 8.659451 -1.939309 1.541131
H 10.045851 0.042591 2.028331
H 9.922051 2.828091 2.115531
H 9.017651 5.474091 2.006731
H 7.027451 6.801391 1.489031
H 4.825551 3.254591 0.480031
H 5.299951 0.546791 0.567431
C 4.624651 5.958291 0.642731
C 4.750751 7.225691 0.060731
C 3.619451 7.978791 -0.195469
C 2.373151 7.451691 0.101931
N 2.244251 6.235891 0.631531
C 3.329551 5.515591 0.913731
H 5.725751 7.607191 -0.197569
H 3.699051 8.961291 -0.631669
H 1.462851 8.013791 -0.077269
H 3.165051 4.554191 1.398431
C 1.071251 -2.019209 5.916031
C 0.856551 -2.902609 5.115831
C 0.614751 -3.895409 4.152031
C 0.976251 -5.214709 4.363331
C 0.738751 -6.188209 3.389231
C 0.167851 -5.860309 2.182431
C -0.204349 -4.530309 1.929031
N -0.753849 -4.208009 0.728231
C -1.191649 -2.980909 0.501831
C -1.072149 -1.959709 1.441431
C -0.458049 -2.228409 2.642831
C -0.013549 -3.529909 2.920731
H 1.441051 -5.492109 5.296531
H 1.013751 -7.210509 3.596831
H -0.033649 -6.618909 1.423831
H -1.658249 -2.801409 -0.466169
H -1.448949 -0.977909 1.207531
H -0.314449 -1.467009 3.393431
C 1.310951 -0.936709 6.783031
C 1.767151 -1.153309 8.096331
C 2.018251 -0.100809 8.950431
C 1.810151 1.191091 8.479231
N 1.993251 2.396791 9.103731
C 1.667151 3.408991 8.243131
C 1.694851 4.786691 8.422231
C 1.302351 5.588391 7.370631
C 0.887251 5.049791 6.141631
C 0.861651 3.668191 5.966331
C 1.250951 2.848891 7.010231
C 1.344851 1.422091 7.160531
C 1.095851 0.359091 6.312131
H 1.921851 -2.166309 8.436131
H 2.368951 -0.277409 9.956031
H 2.312451 2.517891 10.050831
H 2.014551 5.221691 9.356731
H 1.341551 6.659891 7.491731
H 0.501951 3.229691 5.050331
H 0.749551 0.521591 5.305231
C 0.461351 5.926391 5.045631
C -0.254149 7.110391 5.260431
C -0.664649 7.867091 4.177931
C -0.391249 7.421191 2.893831
N 0.289351 6.297091 2.682731
C 0.728751 5.582891 3.720731
H -0.498549 7.418991 6.264631
H -1.210949 8.784891 4.323431
H -0.715349 7.975091 2.020831
H 1.347051 4.713491 3.490431
C -6.127349 1.969091 -0.865369
C -5.400349 2.911991 -0.644269
C -4.465749 3.930591 -0.394169
C -4.585549 5.194391 -0.944369
C -3.608749 6.169591 -0.720669
C -2.478449 5.888291 0.009931
C -2.320449 4.612491 0.575631
N -1.185549 4.323791 1.265531
C -1.067849 3.172191 1.902831
C -2.064149 2.198891 1.879131
C -3.185049 2.413591 1.111431
C -3.335649 3.629991 0.428231
H -5.446549 5.427791 -1.551269
H -3.748849 7.152391 -1.142569
H -1.712349 6.646691 0.194631
H -0.144649 3.019791 2.457331
H -1.945449 1.293291 2.450331
H -3.966749 1.674391 1.031031
C -6.914749 0.833491 -1.133469
C -8.240749 0.972491 -1.582269
C -9.016949 -0.129209 -1.869569
C -8.450049 -1.389109 -1.712069
N -8.986249 -2.626709 -1.949569
C -8.052449 -3.586409 -1.673169
C -8.133549 -4.969309 -1.776869
C -7.024049 -5.711809 -1.433869
C -5.834049 -5.109409 -0.990969
C -5.757349 -3.722209 -0.887369
C -6.861049 -2.959909 -1.229469
C -7.116549 -1.543909 -1.256169
C -6.349049 -0.431009 -0.962469
H -8.652249 1.963691 -1.700069
H -10.034249 -0.014909 -2.212369
H -9.922449 -2.801709 -2.275469
H -9.036249 -5.451409 -2.119269
H -7.067149 -6.784909 -1.537869
H -4.871349 -3.240909 -0.507469
H -5.331749 -0.531109 -0.621069
C -4.680849 -5.945609 -0.641769
C -4.826049 -7.202109 -0.041069
C -3.704149 -7.955709 0.252131
C -2.449049 -7.440309 -0.028969
N -2.302449 -6.236009 -0.579169
C -3.378449 -5.515009 -0.895669
H -5.808549 -7.574009 0.202831
H -3.797749 -8.929609 0.704431
H -1.546249 -8.003209 0.180931
H -3.199949 -4.563609 -1.395969
C -0.980849 2.001891 -5.900969
C -0.785349 2.885391 -5.095969
C -0.565549 3.880091 -4.128869
C -0.907249 5.201691 -4.357869
C -0.690549 6.177891 -3.381669
C -0.159549 5.850891 -2.156469
C 0.191751 4.518891 -1.885069
N 0.703951 4.198191 -0.667569
C 1.121651 2.967591 -0.421469
C 1.015851 1.941591 -1.357369
C 0.440251 2.209991 -2.577869
C 0.019851 3.514791 -2.876469
H -1.339849 5.478791 -5.306569
H -0.949149 7.201591 -3.602369
H 0.025851 6.611391 -1.396469
H 1.560051 2.788991 0.560131
H 1.373751 0.956991 -1.106269
H 0.309351 1.445691 -3.327869
C -1.201549 0.918991 -6.772469
C -1.618449 1.135491 -8.098869
C -1.853349 0.082691 -8.957069
C -1.668949 -1.209609 -8.476869
N -1.845749 -2.415609 -9.102569
C -1.552849 -3.427909 -8.230069
C -1.590049 -4.805909 -8.404969
C -1.234349 -5.607509 -7.340169
C -0.845849 -5.068509 -6.102569
C -0.810249 -3.686609 -5.931769
C -1.164349 -2.867409 -6.988269
C -1.241749 -1.440409 -7.145269
C -1.008749 -0.377109 -6.292869
H -1.756049 2.148691 -8.445369
H -2.174349 0.259191 -9.972569
H -2.140549 -2.537009 -10.057369
H -1.889149 -5.241209 -9.345969
H -1.282349 -6.678909 -7.458469
H -0.469249 -3.248209 -5.008569
H -0.692349 -0.539709 -5.276169
C -0.457749 -5.945209 -4.992869
C 0.243851 -7.141309 -5.185369
C 0.617351 -7.898909 -4.090069
C 0.323651 -7.440909 -2.814969
N -0.341649 -6.303709 -2.624869
C -0.748049 -5.589809 -3.675869
H 0.505951 -7.459309 -6.182069
H 1.150951 -8.826609 -4.218769
H 0.617551 -7.996009 -1.931769
H -1.357649 -4.710309 -3.463669
