
     RDKit          3D

  0  0  0  0  0  0  0  0  0  0999 V3000
M  V30 BEGIN CTAB
M  V30 COUNTS 21 24 0 0 0
M  V30 BEGIN ATOM
M  V30 1 Pd 2.0000 0.0000 0.0000 0 CHG=2
M  V30 2 Pd -1.0000 -1.7321 0.0000 0 CHG=2
M  V30 3 Pd -1.0000 1.7321 0.0000 0 CHG=2
M  V30 4 Br 0.1340 2.2321 1.0000 0
M  V30 5 C 1.0000 1.7321 1.0000 0
M  V30 6 I 1.8660 1.2321 1.0000 0
M  V30 7 Br 0.1340 2.2321 -1.0000 0
M  V30 8 C 1.0000 1.7321 -1.0000 0
M  V30 9 I 1.8660 1.2321 -1.0000 0
M  V30 10 Br 1.8660 -1.2321 1.0000 0
M  V30 11 C 1.0000 -1.7321 1.0000 0
M  V30 12 I 0.1340 -2.2321 1.0000 0
M  V30 13 Br 0.1340 -2.2321 -1.0000 0
M  V30 14 C 1.0000 -1.7321 -1.0000 0
M  V30 15 I 1.8660 -1.2321 -1.0000 0
M  V30 16 Br -2.0000 1.0000 1.0000 0
M  V30 17 C -2.0000 0.0000 1.0000 0
M  V30 18 I -2.0000 -1.0000 1.0000 0
M  V30 19 Br -2.0000 1.0000 -1.0000 0
M  V30 20 C -2.0000 0.0000 -1.0000 0
M  V30 21 I -2.0000 -1.0000 -1.0000 0
M  V30 END ATOM
M  V30 BEGIN BOND
M  V30 1 1 4 5
M  V30 2 1 5 6
M  V30 3 1 7 8
M  V30 4 1 8 9
M  V30 5 1 10 11
M  V30 6 1 11 12
M  V30 7 1 13 14
M  V30 8 1 14 15
M  V30 9 1 16 17
M  V30 10 1 17 18
M  V30 11 1 19 20
M  V30 12 1 20 21
M  V30 13 1 1 6
M  V30 14 1 1 9
M  V30 15 1 1 10
M  V30 16 1 1 15
M  V30 17 1 2 12
M  V30 18 1 2 13
M  V30 19 1 2 18
M  V30 20 1 2 21
M  V30 21 1 3 4
M  V30 22 1 3 7
M  V30 23 1 3 16
M  V30 24 1 3 19
M  V30 END BOND
M  V30 END CTAB
M  END

$$$$
