
     RDKit          3D

  0  0  0  0  0  0  0  0  0  0999 V3000
M  V30 BEGIN CTAB
M  V30 COUNTS 28 32 0 0 0
M  V30 BEGIN ATOM
M  V30 1 Pd -2.0000 -1.1547 -0.8165 0 CHG=2
M  V30 2 Pd 2.0000 -1.1547 -0.8165 0 CHG=2
M  V30 3 Pd 0.0000 2.3094 -0.8165 0 CHG=2
M  V30 4 Pd 0.0000 0.0000 2.4495 0 CHG=2
M  V30 5 Br -0.8000 -0.9547 -1.2165 0
M  V30 6 C 0.2000 -0.9547 -1.2165 0
M  V30 7 I 1.2000 -0.9547 -1.2165 0
M  V30 8 Br 0.8000 -1.3547 -0.4165 0
M  V30 9 C -0.2000 -1.3547 -0.4165 0
M  V30 10 I -1.2000 -1.3547 -0.4165 0
M  V30 11 Br -1.5000 -0.2887 -0.8165 0
M  V30 12 C -1.0000 0.5774 -0.8165 0
M  V30 13 I -0.5000 1.4434 -0.8165 0
M  V30 14 Br 0.5000 1.4434 -0.8165 0
M  V30 15 C 1.0000 0.5774 -0.8165 0
M  V30 16 I 1.5000 -0.2887 -0.8165 0
M  V30 17 Br -0.5000 -0.2887 1.6330 0
M  V30 18 C -1.0000 -0.5774 0.8165 0
M  V30 19 I -1.5000 -0.8660 -0.0000 0
M  V30 20 Br 1.5000 -0.8660 -0.0000 0
M  V30 21 C 1.0000 -0.5774 0.8165 0
M  V30 22 I 0.5000 -0.2887 1.6330 0
M  V30 23 Br 0.2000 0.7774 2.0330 0
M  V30 24 C 0.2000 1.3547 1.2165 0
M  V30 25 I 0.2000 1.9321 0.4000 0
M  V30 26 Br -0.2000 1.5321 -0.4000 0
M  V30 27 C -0.2000 0.9547 0.4165 0
M  V30 28 I -0.2000 0.3774 1.2330 0
M  V30 END ATOM
M  V30 BEGIN BOND
M  V30 1 1 5 6
M  V30 2 1 6 7
M  V30 3 1 8 9
M  V30 4 1 9 10
M  V30 5 1 11 12
M  V30 6 1 12 13
M  V30 7 1 14 15
M  V30 8 1 15 16
M  V30 9 1 17 18
M  V30 10 1 18 19
M  V30 11 1 20 21
M  V30 12 1 21 22
M  V30 13 1 23 24
M  V30 14 1 24 25
M  V30 15 1 26 27
M  V30 16 1 27 28
M  V30 17 1 1 5
M  V30 18 1 1 10
M  V30 19 1 1 11
M  V30 20 1 1 19
M  V30 21 1 2 7
M  V30 22 1 2 8
M  V30 23 1 2 16
M  V30 24 1 2 20
M  V30 25 1 3 13
M  V30 26 1 3 14
M  V30 27 1 3 25
M  V30 28 1 3 26
M  V30 29 1 4 17
M  V30 30 1 4 22
M  V30 31 1 4 23
M  V30 32 1 4 28
M  V30 END BOND
M  V30 END CTAB
M  END

$$$$
