
     RDKit          3D

  0  0  0  0  0  0  0  0  0  0999 V3000
M  V30 BEGIN CTAB
M  V30 COUNTS 39 40 0 0 0
M  V30 BEGIN ATOM
M  V30 1 C -6.1918 -0.0144 0.0260 0
M  V30 2 O -6.4412 -0.9808 -0.6801 0
M  V30 3 N -4.9088 0.3563 0.2674 0
M  V30 4 C -3.7946 -0.3687 -0.3218 0
M  V30 5 C -2.4432 0.1442 0.1126 0
M  V30 6 H -3.8635 -0.2946 -1.4291 0
M  V30 7 H -3.8546 -1.4389 -0.0270 0
M  V30 8 O -2.3525 1.0583 0.9229 0
M  V30 9 N -1.3227 -0.4277 -0.4003 0
M  V30 10 H -4.7414 1.1701 0.8774 0
M  V30 11 C 0.0000 0.0000 0.0000 0
M  V30 12 H -1.4194 -1.1872 -1.0922 0
M  V30 13 H 0.1325 -0.1706 1.0900 0
M  V30 14 H 0.1334 1.0793 -0.2255 0
M  V30 15 I -7.7839 1.0748 0.8797 0
M  V30 16 C 11.5872 0.0000 0.0000 0
M  V30 17 C 12.4333 -1.2605 0.1556 0
M  V30 18 C 12.3999 1.2747 -0.2157 0
M  V30 19 C 12.3684 2.0008 -1.4263 0
M  V30 20 C 13.1410 3.1557 -1.5785 0
M  V30 21 C 13.9464 3.6064 -0.5316 0
M  V30 22 C 13.9819 2.9034 0.6735 0
M  V30 23 C 13.2157 1.7455 0.8330 0
M  V30 24 H 13.2554 1.2099 1.7737 0
M  V30 25 H 11.7649 1.6803 -2.2614 0
M  V30 26 H 13.1168 3.7010 -2.5132 0
M  V30 27 H 14.5435 4.5004 -0.6552 0
M  V30 28 H 14.6060 3.2550 1.4849 0
M  V30 29 C 11.7958 -2.4683 0.4996 0
M  V30 30 C 12.5319 -3.6491 0.6354 0
M  V30 31 C 13.9126 -3.6414 0.4337 0
M  V30 32 C 14.5615 -2.4539 0.0948 0
M  V30 33 C 13.8333 -1.2692 -0.0466 0
M  V30 34 H 14.3691 -0.3724 -0.3206 0
M  V30 35 H 10.7248 -2.4941 0.6592 0
M  V30 36 H 12.0299 -4.5718 0.8958 0
M  V30 37 H 14.4803 -4.5570 0.5379 0
M  V30 38 H 15.6323 -2.4501 -0.0634 0
M  V30 39 H 11.0055 0.1545 0.9353 0
M  V30 END ATOM
M  V30 BEGIN BOND
M  V30 1 2 1 2
M  V30 2 1 1 3
M  V30 3 1 1 15
M  V30 4 1 3 4
M  V30 5 1 3 10
M  V30 6 1 4 5
M  V30 7 1 4 6
M  V30 8 1 4 7
M  V30 9 2 5 8
M  V30 10 1 5 9
M  V30 11 1 9 11
M  V30 12 1 9 12
M  V30 13 1 11 13
M  V30 14 1 11 14
M  V30 15 1 16 17
M  V30 16 1 16 18
M  V30 17 1 16 39
M  V30 18 1 17 29
M  V30 19 1 18 19
M  V30 20 2 19 20
M  V30 21 1 19 25
M  V30 22 1 20 21
M  V30 23 1 20 26
M  V30 24 2 21 22
M  V30 25 1 21 27
M  V30 26 1 22 23
M  V30 27 1 22 28
M  V30 28 2 23 18
M  V30 29 1 23 24
M  V30 30 2 29 30
M  V30 31 1 29 35
M  V30 32 1 30 31
M  V30 33 1 30 36
M  V30 34 2 31 32
M  V30 35 1 31 37
M  V30 36 1 32 33
M  V30 37 1 32 38
M  V30 38 2 33 17
M  V30 39 1 33 34
M  V30 40 1 11 16
M  V30 END BOND
M  V30 END CTAB
M  END

$$$$
