
     RDKit          3D

  0  0  0  0  0  0  0  0  0  0999 V3000
M  V30 BEGIN CTAB
M  V30 COUNTS 558 596 0 0 0
M  V30 BEGIN ATOM
M  V30 1 Pd 0.0000 14.4335 0.0000 0 CHG=2
M  V30 2 Pd 0.0000 -14.4335 0.0000 0 CHG=2
M  V30 3 N 28.8670 5.5038 -0.0000 0
M  V30 4 C 29.1229 6.4230 -0.9698 0
M  V30 5 C 30.3426 6.3728 -1.6707 0
M  V30 6 C 31.2505 5.3674 -1.3777 0
M  V30 7 C 30.9638 4.4201 -0.3847 0
M  V30 8 C 29.7575 4.5285 0.3151 0
M  V30 9 C 31.8449 3.3048 -0.1820 0
M  V30 10 C 32.5289 2.3186 -0.0965 0
M  V30 11 H 29.4853 3.7988 1.0633 0
M  V30 12 H 28.3967 7.1968 -1.2038 0
M  V30 13 H 30.5554 7.1171 -2.4069 0
M  V30 14 H 32.1789 5.3199 -1.9346 0
M  V30 15 N 28.8670 -5.5038 0.0000 0
M  V30 16 C 29.3311 -6.7669 -0.1461 0
M  V30 17 C 30.6771 -6.9931 -0.4489 0
M  V30 18 C 31.5508 -5.8970 -0.5623 0
M  V30 19 C 31.0654 -4.6021 -0.3819 0
M  V30 20 C 29.6997 -4.4206 -0.1140 0
M  V30 21 C 31.9356 -3.4719 -0.4605 0
M  V30 22 C 32.6570 -2.4975 -0.4986 0
M  V30 23 H 29.2932 -3.4228 0.0152 0
M  V30 24 H 28.6574 -7.6134 0.0180 0
M  V30 25 H 31.0763 -8.0018 -0.5194 0
M  V30 26 H 32.5828 -6.0681 -0.8062 0
M  V30 27 C 35.4817 -0.0599 0.0240 0
M  V30 28 C 34.7095 1.1411 0.0957 0
M  V30 29 C 33.3139 1.1021 -0.0986 0
M  V30 30 C 32.7128 -0.0774 -0.4804 0
M  V30 31 C 33.4318 -1.2759 -0.4766 0
M  V30 32 C 34.8017 -1.2750 -0.2131 0
M  V30 33 H 35.3731 -2.1837 -0.2350 0
M  V30 34 H 35.2089 2.1162 0.3085 0
M  V30 35 H 31.6332 -0.1045 -0.6715 0
M  V30 36 C 36.9959 0.0889 -0.1347 0
M  V30 37 O 37.4235 1.2500 -0.3546 0
M  V30 38 N 37.7198 -1.0301 -0.6929 0
M  V30 39 C 38.9650 -1.5078 -0.0698 0
M  V30 40 C 39.8376 -2.2039 -1.0809 0
M  V30 41 H 39.5385 -0.6616 0.3679 0
M  V30 42 H 38.6701 -2.2515 0.6872 0
M  V30 43 O 39.6333 -2.0332 -2.3132 0
M  V30 44 N 40.8455 -3.1533 -0.6743 0
M  V30 45 H 37.2748 -1.6235 -1.4504 0
M  V30 46 C 42.0949 -2.7374 -0.0130 0
M  V30 47 H 40.6697 -4.1775 -0.8098 0
M  V30 48 H 42.3766 -1.7493 -0.4140 0
M  V30 49 H 41.9240 -2.6574 1.0801 0
M  V30 50 C 43.2837 -3.7147 -0.3297 0
M  V30 51 C 44.6589 -3.0669 -0.2676 0
M  V30 52 C 43.3157 -4.9632 0.5317 0
M  V30 53 C 43.2131 -4.8797 1.9368 0
M  V30 54 C 43.4462 -6.0078 2.7372 0
M  V30 55 C 43.7928 -7.2144 2.1441 0
M  V30 56 C 43.9167 -7.3143 0.7539 0
M  V30 57 C 43.6908 -6.1940 -0.0493 0
M  V30 58 H 43.8843 -6.2555 -1.1117 0
M  V30 59 H 43.0079 -3.9470 2.4459 0
M  V30 60 H 43.3847 -5.9341 3.8065 0
M  V30 61 H 44.0365 -8.0681 2.7615 0
M  V30 62 H 44.2892 -8.2238 0.3218 0
M  V30 63 C 45.6055 -3.3620 -1.2598 0
M  V30 64 C 46.9126 -2.8588 -1.1791 0
M  V30 65 C 47.2814 -2.0360 -0.1264 0
M  V30 66 C 46.3446 -1.7509 0.8801 0
M  V30 67 C 45.0580 -2.2670 0.8232 0
M  V30 68 H 44.3764 -2.0692 1.6422 0
M  V30 69 H 45.3508 -3.9937 -2.0997 0
M  V30 70 H 47.6472 -3.1393 -1.9273 0
M  V30 71 H 48.3053 -1.6738 -0.0597 0
M  V30 72 H 46.6536 -1.1713 1.7240 0
M  V30 73 H 43.1336 -4.0344 -1.3803 0
M  V30 74 C 40.0274 -4.9780 3.7752 0
M  V30 75 O 39.0527 -4.9324 2.9854 0
M  V30 76 C 41.5855 -3.6275 5.2319 0
M  V30 77 C 40.7168 -3.7002 4.1317 0
M  V30 78 C 42.2323 -2.4248 5.5338 0
M  V30 79 C 42.0280 -1.2871 4.7393 0
M  V30 80 C 40.5006 -2.5440 3.3451 0
M  V30 81 C 41.1592 -1.3258 3.6359 0
M  V30 82 H 41.7840 -4.4581 5.8573 0
M  V30 83 H 42.9153 -2.3797 6.3684 0
M  V30 84 H 39.8749 -2.6047 2.4794 0
M  V30 85 C 40.9923 -0.1022 2.8240 0
M  V30 86 O 40.1155 0.7352 3.1455 0
M  V30 87 H 42.5576 -0.3906 4.9931 0
M  V30 88 C 42.7060 -3.3932 -3.9793 0
M  V30 89 O 41.6009 -2.8660 -3.7524 0
M  V30 90 C 43.8535 -5.5999 -4.5378 0
M  V30 91 C 42.7893 -4.9011 -3.9513 0
M  V30 92 C 43.9293 -6.9844 -4.4057 0
M  V30 93 C 43.0088 -7.6921 -3.6299 0
M  V30 94 C 41.8009 -5.6442 -3.2528 0
M  V30 95 C 41.9492 -7.0313 -3.0011 0
M  V30 96 H 44.6110 -5.0743 -5.1089 0
M  V30 97 H 44.7456 -7.5036 -4.9004 0
M  V30 98 H 40.9457 -5.1075 -2.8325 0
M  V30 99 C 40.9937 -7.7169 -2.0798 0
M  V30 100 O 40.1174 -7.0288 -1.4913 0
M  V30 101 H 43.1624 -8.7577 -3.5388 0
M  V30 102 N 41.0678 -9.1269 -1.7841 0
M  V30 103 C 39.8816 -9.2761 0.3711 0
M  V30 104 C 40.9821 -9.2385 1.2421 0
M  V30 105 C 38.6278 -8.8074 0.8361 0
M  V30 106 C 38.5077 -8.2364 2.1064 0
M  V30 107 H 37.7451 -8.8843 0.2100 0
M  V30 108 C 39.6402 -8.1255 2.9316 0
M  V30 109 H 37.5394 -7.8492 2.4362 0
M  V30 110 C 40.8551 -8.6789 2.5248 0
M  V30 111 H 41.9275 -9.6456 0.9324 0
M  V30 112 H 41.7033 -8.6743 3.1997 0
M  V30 113 C 40.0185 -9.8353 -1.0217 0
M  V30 114 H 40.2696 -10.9238 -0.9602 0
M  V30 115 H 39.0445 -9.7629 -1.5690 0
M  V30 116 C 39.5327 -7.4357 4.2785 0
M  V30 117 N 40.4092 -6.2428 4.3464 0
M  V30 118 H 39.8179 -8.1531 5.0772 0
M  V30 119 H 38.4993 -7.1262 4.5014 0
M  V30 120 H 41.3042 -6.3308 4.8933 0
M  V30 121 H 41.6920 -9.7453 -2.3381 0
M  V30 122 N 41.8778 0.1612 1.7245 0
M  V30 123 C 42.3033 0.8815 -0.5699 0
M  V30 124 C 43.6678 0.5782 -0.6737 0
M  V30 125 C 41.4743 0.7140 -1.6941 0
M  V30 126 C 41.9860 0.1115 -2.8523 0
M  V30 127 H 40.4351 1.0177 -1.6561 0
M  V30 128 C 43.3108 -0.3761 -2.8878 0
M  V30 129 H 41.3273 -0.0193 -3.6971 0
M  V30 130 C 44.1578 -0.0645 -1.8150 0
M  V30 131 H 44.3403 0.7611 0.1717 0
M  V30 132 H 45.1968 -0.3617 -1.8648 0
M  V30 133 C 41.7276 1.2769 0.7781 0
M  V30 134 H 42.2108 2.1795 1.1814 0
M  V30 135 H 40.6536 1.5295 0.6575 0
M  V30 136 C 43.8506 -1.0818 -4.1123 0
M  V30 137 N 43.9009 -2.5584 -3.9667 0
M  V30 138 H 44.8634 -0.7116 -4.3410 0
M  V30 139 H 43.2116 -0.8300 -4.9924 0
M  V30 140 H 44.8286 -3.0182 -4.0832 0
M  V30 141 H 42.6286 -0.5346 1.5492 0
M  V30 142 N 0.0000 5.5038 28.8670 0
M  V30 143 C 0.9698 6.4230 29.1229 0
M  V30 144 C 1.6707 6.3728 30.3426 0
M  V30 145 C 1.3777 5.3674 31.2505 0
M  V30 146 C 0.3847 4.4201 30.9638 0
M  V30 147 C -0.3151 4.5285 29.7575 0
M  V30 148 C 0.1820 3.3048 31.8449 0
M  V30 149 C 0.0965 2.3186 32.5289 0
M  V30 150 H -1.0633 3.7988 29.4853 0
M  V30 151 H 1.2038 7.1968 28.3967 0
M  V30 152 H 2.4069 7.1171 30.5554 0
M  V30 153 H 1.9346 5.3199 32.1789 0
M  V30 154 N -0.0000 -5.5038 28.8670 0
M  V30 155 C 0.1461 -6.7669 29.3311 0
M  V30 156 C 0.4489 -6.9931 30.6771 0
M  V30 157 C 0.5623 -5.8970 31.5508 0
M  V30 158 C 0.3819 -4.6021 31.0654 0
M  V30 159 C 0.1140 -4.4206 29.6997 0
M  V30 160 C 0.4605 -3.4719 31.9356 0
M  V30 161 C 0.4986 -2.4975 32.6570 0
M  V30 162 H -0.0152 -3.4228 29.2932 0
M  V30 163 H -0.0180 -7.6134 28.6574 0
M  V30 164 H 0.5194 -8.0018 31.0763 0
M  V30 165 H 0.8062 -6.0681 32.5828 0
M  V30 166 C -0.0240 -0.0599 35.4817 0
M  V30 167 C -0.0957 1.1411 34.7095 0
M  V30 168 C 0.0986 1.1021 33.3139 0
M  V30 169 C 0.4804 -0.0774 32.7128 0
M  V30 170 C 0.4766 -1.2759 33.4318 0
M  V30 171 C 0.2131 -1.2750 34.8017 0
M  V30 172 H 0.2350 -2.1837 35.3731 0
M  V30 173 H -0.3085 2.1162 35.2089 0
M  V30 174 H 0.6715 -0.1045 31.6332 0
M  V30 175 C 0.1347 0.0889 36.9959 0
M  V30 176 O 0.3546 1.2500 37.4235 0
M  V30 177 N 0.6929 -1.0301 37.7198 0
M  V30 178 C 0.0698 -1.5078 38.9650 0
M  V30 179 C 1.0809 -2.2039 39.8376 0
M  V30 180 H -0.3679 -0.6616 39.5385 0
M  V30 181 H -0.6872 -2.2515 38.6701 0
M  V30 182 O 2.3132 -2.0332 39.6333 0
M  V30 183 N 0.6743 -3.1533 40.8455 0
M  V30 184 H 1.4504 -1.6235 37.2748 0
M  V30 185 C 0.0130 -2.7374 42.0949 0
M  V30 186 H 0.8098 -4.1775 40.6697 0
M  V30 187 H 0.4140 -1.7493 42.3766 0
M  V30 188 H -1.0801 -2.6574 41.9240 0
M  V30 189 C 0.3297 -3.7147 43.2837 0
M  V30 190 C 0.2676 -3.0669 44.6589 0
M  V30 191 C -0.5317 -4.9632 43.3157 0
M  V30 192 C -1.9368 -4.8797 43.2131 0
M  V30 193 C -2.7372 -6.0078 43.4462 0
M  V30 194 C -2.1441 -7.2144 43.7928 0
M  V30 195 C -0.7539 -7.3143 43.9167 0
M  V30 196 C 0.0493 -6.1940 43.6908 0
M  V30 197 H 1.1117 -6.2555 43.8843 0
M  V30 198 H -2.4459 -3.9470 43.0079 0
M  V30 199 H -3.8065 -5.9341 43.3847 0
M  V30 200 H -2.7615 -8.0681 44.0365 0
M  V30 201 H -0.3218 -8.2238 44.2892 0
M  V30 202 C 1.2598 -3.3620 45.6055 0
M  V30 203 C 1.1791 -2.8588 46.9126 0
M  V30 204 C 0.1264 -2.0360 47.2814 0
M  V30 205 C -0.8801 -1.7509 46.3446 0
M  V30 206 C -0.8232 -2.2670 45.0580 0
M  V30 207 H -1.6422 -2.0692 44.3764 0
M  V30 208 H 2.0997 -3.9937 45.3508 0
M  V30 209 H 1.9273 -3.1393 47.6472 0
M  V30 210 H 0.0597 -1.6738 48.3053 0
M  V30 211 H -1.7240 -1.1713 46.6536 0
M  V30 212 H 1.3803 -4.0344 43.1336 0
M  V30 213 C -3.7752 -4.9780 40.0274 0
M  V30 214 O -2.9854 -4.9324 39.0527 0
M  V30 215 C -5.2319 -3.6275 41.5855 0
M  V30 216 C -4.1317 -3.7002 40.7168 0
M  V30 217 C -5.5338 -2.4248 42.2323 0
M  V30 218 C -4.7393 -1.2871 42.0280 0
M  V30 219 C -3.3451 -2.5440 40.5006 0
M  V30 220 C -3.6359 -1.3258 41.1592 0
M  V30 221 H -5.8573 -4.4581 41.7840 0
M  V30 222 H -6.3684 -2.3797 42.9153 0
M  V30 223 H -2.4794 -2.6047 39.8749 0
M  V30 224 C -2.8240 -0.1022 40.9923 0
M  V30 225 O -3.1455 0.7352 40.1155 0
M  V30 226 H -4.9931 -0.3906 42.5576 0
M  V30 227 C 3.9793 -3.3932 42.7060 0
M  V30 228 O 3.7524 -2.8660 41.6009 0
M  V30 229 C 4.5378 -5.5999 43.8535 0
M  V30 230 C 3.9513 -4.9011 42.7893 0
M  V30 231 C 4.4057 -6.9844 43.9293 0
M  V30 232 C 3.6299 -7.6921 43.0088 0
M  V30 233 C 3.2528 -5.6442 41.8009 0
M  V30 234 C 3.0011 -7.0313 41.9492 0
M  V30 235 H 5.1089 -5.0743 44.6110 0
M  V30 236 H 4.9004 -7.5036 44.7456 0
M  V30 237 H 2.8325 -5.1075 40.9457 0
M  V30 238 C 2.0798 -7.7169 40.9937 0
M  V30 239 O 1.4913 -7.0288 40.1174 0
M  V30 240 H 3.5388 -8.7577 43.1624 0
M  V30 241 N 1.7841 -9.1269 41.0678 0
M  V30 242 C -0.3711 -9.2761 39.8816 0
M  V30 243 C -1.2421 -9.2385 40.9821 0
M  V30 244 C -0.8361 -8.8074 38.6278 0
M  V30 245 C -2.1064 -8.2364 38.5077 0
M  V30 246 H -0.2100 -8.8843 37.7451 0
M  V30 247 C -2.9316 -8.1255 39.6402 0
M  V30 248 H -2.4362 -7.8492 37.5394 0
M  V30 249 C -2.5248 -8.6789 40.8551 0
M  V30 250 H -0.9324 -9.6456 41.9275 0
M  V30 251 H -3.1997 -8.6743 41.7033 0
M  V30 252 C 1.0217 -9.8353 40.0185 0
M  V30 253 H 0.9602 -10.9238 40.2696 0
M  V30 254 H 1.5690 -9.7629 39.0445 0
M  V30 255 C -4.2785 -7.4357 39.5327 0
M  V30 256 N -4.3464 -6.2428 40.4092 0
M  V30 257 H -5.0772 -8.1531 39.8179 0
M  V30 258 H -4.5014 -7.1262 38.4993 0
M  V30 259 H -4.8933 -6.3308 41.3042 0
M  V30 260 H 2.3381 -9.7453 41.6920 0
M  V30 261 N -1.7245 0.1612 41.8778 0
M  V30 262 C 0.5699 0.8815 42.3033 0
M  V30 263 C 0.6737 0.5782 43.6678 0
M  V30 264 C 1.6941 0.7140 41.4743 0
M  V30 265 C 2.8523 0.1115 41.9860 0
M  V30 266 H 1.6561 1.0177 40.4351 0
M  V30 267 C 2.8878 -0.3761 43.3108 0
M  V30 268 H 3.6971 -0.0193 41.3273 0
M  V30 269 C 1.8150 -0.0645 44.1578 0
M  V30 270 H -0.1717 0.7611 44.3403 0
M  V30 271 H 1.8648 -0.3617 45.1968 0
M  V30 272 C -0.7781 1.2769 41.7276 0
M  V30 273 H -1.1814 2.1795 42.2108 0
M  V30 274 H -0.6575 1.5295 40.6536 0
M  V30 275 C 4.1123 -1.0818 43.8506 0
M  V30 276 N 3.9667 -2.5584 43.9009 0
M  V30 277 H 4.3410 -0.7116 44.8634 0
M  V30 278 H 4.9924 -0.8300 43.2116 0
M  V30 279 H 4.0832 -3.0182 44.8286 0
M  V30 280 H -1.5492 -0.5346 42.6286 0
M  V30 281 N -28.8670 5.5038 0.0000 0
M  V30 282 C -29.1229 6.4230 0.9698 0
M  V30 283 C -30.3426 6.3728 1.6707 0
M  V30 284 C -31.2505 5.3674 1.3777 0
M  V30 285 C -30.9638 4.4201 0.3847 0
M  V30 286 C -29.7575 4.5285 -0.3151 0
M  V30 287 C -31.8449 3.3048 0.1820 0
M  V30 288 C -32.5289 2.3186 0.0965 0
M  V30 289 H -29.4853 3.7988 -1.0633 0
M  V30 290 H -28.3967 7.1968 1.2038 0
M  V30 291 H -30.5554 7.1171 2.4069 0
M  V30 292 H -32.1789 5.3199 1.9346 0
M  V30 293 N -28.8670 -5.5038 -0.0000 0
M  V30 294 C -29.3311 -6.7669 0.1461 0
M  V30 295 C -30.6771 -6.9931 0.4489 0
M  V30 296 C -31.5508 -5.8970 0.5623 0
M  V30 297 C -31.0654 -4.6021 0.3819 0
M  V30 298 C -29.6997 -4.4206 0.1140 0
M  V30 299 C -31.9356 -3.4719 0.4605 0
M  V30 300 C -32.6570 -2.4975 0.4986 0
M  V30 301 H -29.2932 -3.4228 -0.0152 0
M  V30 302 H -28.6574 -7.6134 -0.0180 0
M  V30 303 H -31.0763 -8.0018 0.5194 0
M  V30 304 H -32.5828 -6.0681 0.8062 0
M  V30 305 C -35.4817 -0.0599 -0.0240 0
M  V30 306 C -34.7095 1.1411 -0.0957 0
M  V30 307 C -33.3139 1.1021 0.0986 0
M  V30 308 C -32.7128 -0.0774 0.4804 0
M  V30 309 C -33.4318 -1.2759 0.4766 0
M  V30 310 C -34.8017 -1.2750 0.2131 0
M  V30 311 H -35.3731 -2.1837 0.2350 0
M  V30 312 H -35.2089 2.1162 -0.3085 0
M  V30 313 H -31.6332 -0.1045 0.6715 0
M  V30 314 C -36.9959 0.0889 0.1347 0
M  V30 315 O -37.4235 1.2500 0.3546 0
M  V30 316 N -37.7198 -1.0301 0.6929 0
M  V30 317 C -38.9650 -1.5078 0.0698 0
M  V30 318 C -39.8376 -2.2039 1.0809 0
M  V30 319 H -39.5385 -0.6616 -0.3679 0
M  V30 320 H -38.6701 -2.2515 -0.6872 0
M  V30 321 O -39.6333 -2.0332 2.3132 0
M  V30 322 N -40.8455 -3.1533 0.6743 0
M  V30 323 H -37.2748 -1.6235 1.4504 0
M  V30 324 C -42.0949 -2.7374 0.0130 0
M  V30 325 H -40.6697 -4.1775 0.8098 0
M  V30 326 H -42.3766 -1.7493 0.4140 0
M  V30 327 H -41.9240 -2.6574 -1.0801 0
M  V30 328 C -43.2837 -3.7147 0.3297 0
M  V30 329 C -44.6589 -3.0669 0.2676 0
M  V30 330 C -43.3157 -4.9632 -0.5317 0
M  V30 331 C -43.2131 -4.8797 -1.9368 0
M  V30 332 C -43.4462 -6.0078 -2.7372 0
M  V30 333 C -43.7928 -7.2144 -2.1441 0
M  V30 334 C -43.9167 -7.3143 -0.7539 0
M  V30 335 C -43.6908 -6.1940 0.0493 0
M  V30 336 H -43.8843 -6.2555 1.1117 0
M  V30 337 H -43.0079 -3.9470 -2.4459 0
M  V30 338 H -43.3847 -5.9341 -3.8065 0
M  V30 339 H -44.0365 -8.0681 -2.7615 0
M  V30 340 H -44.2892 -8.2238 -0.3218 0
M  V30 341 C -45.6055 -3.3620 1.2598 0
M  V30 342 C -46.9126 -2.8588 1.1791 0
M  V30 343 C -47.2814 -2.0360 0.1264 0
M  V30 344 C -46.3446 -1.7509 -0.8801 0
M  V30 345 C -45.0580 -2.2670 -0.8232 0
M  V30 346 H -44.3764 -2.0692 -1.6422 0
M  V30 347 H -45.3508 -3.9937 2.0997 0
M  V30 348 H -47.6472 -3.1393 1.9273 0
M  V30 349 H -48.3053 -1.6738 0.0597 0
M  V30 350 H -46.6536 -1.1713 -1.7240 0
M  V30 351 H -43.1336 -4.0344 1.3803 0
M  V30 352 C -40.0274 -4.9780 -3.7752 0
M  V30 353 O -39.0527 -4.9324 -2.9854 0
M  V30 354 C -41.5855 -3.6275 -5.2319 0
M  V30 355 C -40.7168 -3.7002 -4.1317 0
M  V30 356 C -42.2323 -2.4248 -5.5338 0
M  V30 357 C -42.0280 -1.2871 -4.7393 0
M  V30 358 C -40.5006 -2.5440 -3.3451 0
M  V30 359 C -41.1592 -1.3258 -3.6359 0
M  V30 360 H -41.7840 -4.4581 -5.8573 0
M  V30 361 H -42.9153 -2.3797 -6.3684 0
M  V30 362 H -39.8749 -2.6047 -2.4794 0
M  V30 363 C -40.9923 -0.1022 -2.8240 0
M  V30 364 O -40.1155 0.7352 -3.1455 0
M  V30 365 H -42.5576 -0.3906 -4.9931 0
M  V30 366 C -42.7060 -3.3932 3.9793 0
M  V30 367 O -41.6009 -2.8660 3.7524 0
M  V30 368 C -43.8535 -5.5999 4.5378 0
M  V30 369 C -42.7893 -4.9011 3.9513 0
M  V30 370 C -43.9293 -6.9844 4.4057 0
M  V30 371 C -43.0088 -7.6921 3.6299 0
M  V30 372 C -41.8009 -5.6442 3.2528 0
M  V30 373 C -41.9492 -7.0313 3.0011 0
M  V30 374 H -44.6110 -5.0743 5.1089 0
M  V30 375 H -44.7456 -7.5036 4.9004 0
M  V30 376 H -40.9457 -5.1075 2.8325 0
M  V30 377 C -40.9937 -7.7169 2.0798 0
M  V30 378 O -40.1174 -7.0288 1.4913 0
M  V30 379 H -43.1624 -8.7577 3.5388 0
M  V30 380 N -41.0678 -9.1269 1.7841 0
M  V30 381 C -39.8816 -9.2761 -0.3711 0
M  V30 382 C -40.9821 -9.2385 -1.2421 0
M  V30 383 C -38.6278 -8.8074 -0.8361 0
M  V30 384 C -38.5077 -8.2364 -2.1064 0
M  V30 385 H -37.7451 -8.8843 -0.2100 0
M  V30 386 C -39.6402 -8.1255 -2.9316 0
M  V30 387 H -37.5394 -7.8492 -2.4362 0
M  V30 388 C -40.8551 -8.6789 -2.5248 0
M  V30 389 H -41.9275 -9.6456 -0.9324 0
M  V30 390 H -41.7033 -8.6743 -3.1997 0
M  V30 391 C -40.0185 -9.8353 1.0217 0
M  V30 392 H -40.2696 -10.9238 0.9602 0
M  V30 393 H -39.0445 -9.7629 1.5690 0
M  V30 394 C -39.5327 -7.4357 -4.2785 0
M  V30 395 N -40.4092 -6.2428 -4.3464 0
M  V30 396 H -39.8179 -8.1531 -5.0772 0
M  V30 397 H -38.4993 -7.1262 -4.5014 0
M  V30 398 H -41.3042 -6.3308 -4.8933 0
M  V30 399 H -41.6920 -9.7453 2.3381 0
M  V30 400 N -41.8778 0.1612 -1.7245 0
M  V30 401 C -42.3033 0.8815 0.5699 0
M  V30 402 C -43.6678 0.5782 0.6737 0
M  V30 403 C -41.4743 0.7140 1.6941 0
M  V30 404 C -41.9860 0.1115 2.8523 0
M  V30 405 H -40.4351 1.0177 1.6561 0
M  V30 406 C -43.3108 -0.3761 2.8878 0
M  V30 407 H -41.3273 -0.0193 3.6971 0
M  V30 408 C -44.1578 -0.0645 1.8150 0
M  V30 409 H -44.3403 0.7611 -0.1717 0
M  V30 410 H -45.1968 -0.3617 1.8648 0
M  V30 411 C -41.7276 1.2769 -0.7781 0
M  V30 412 H -42.2108 2.1795 -1.1814 0
M  V30 413 H -40.6536 1.5295 -0.6575 0
M  V30 414 C -43.8506 -1.0818 4.1123 0
M  V30 415 N -43.9009 -2.5584 3.9667 0
M  V30 416 H -44.8634 -0.7116 4.3410 0
M  V30 417 H -43.2116 -0.8300 4.9924 0
M  V30 418 H -44.8286 -3.0182 4.0832 0
M  V30 419 H -42.6286 -0.5346 -1.5492 0
M  V30 420 N -0.0000 5.5038 -28.8670 0
M  V30 421 C -0.9698 6.4230 -29.1229 0
M  V30 422 C -1.6707 6.3728 -30.3426 0
M  V30 423 C -1.3777 5.3674 -31.2505 0
M  V30 424 C -0.3847 4.4201 -30.9638 0
M  V30 425 C 0.3151 4.5285 -29.7575 0
M  V30 426 C -0.1820 3.3048 -31.8449 0
M  V30 427 C -0.0965 2.3186 -32.5289 0
M  V30 428 H 1.0633 3.7988 -29.4853 0
M  V30 429 H -1.2038 7.1968 -28.3967 0
M  V30 430 H -2.4069 7.1171 -30.5554 0
M  V30 431 H -1.9346 5.3199 -32.1789 0
M  V30 432 N 0.0000 -5.5038 -28.8670 0
M  V30 433 C -0.1461 -6.7669 -29.3311 0
M  V30 434 C -0.4489 -6.9931 -30.6771 0
M  V30 435 C -0.5623 -5.8970 -31.5508 0
M  V30 436 C -0.3819 -4.6021 -31.0654 0
M  V30 437 C -0.1140 -4.4206 -29.6997 0
M  V30 438 C -0.4605 -3.4719 -31.9356 0
M  V30 439 C -0.4986 -2.4975 -32.6570 0
M  V30 440 H 0.0152 -3.4228 -29.2932 0
M  V30 441 H 0.0180 -7.6134 -28.6574 0
M  V30 442 H -0.5194 -8.0018 -31.0763 0
M  V30 443 H -0.8062 -6.0681 -32.5828 0
M  V30 444 C 0.0240 -0.0599 -35.4817 0
M  V30 445 C 0.0957 1.1411 -34.7095 0
M  V30 446 C -0.0986 1.1021 -33.3139 0
M  V30 447 C -0.4804 -0.0774 -32.7128 0
M  V30 448 C -0.4766 -1.2759 -33.4318 0
M  V30 449 C -0.2131 -1.2750 -34.8017 0
M  V30 450 H -0.2350 -2.1837 -35.3731 0
M  V30 451 H 0.3085 2.1162 -35.2089 0
M  V30 452 H -0.6715 -0.1045 -31.6332 0
M  V30 453 C -0.1347 0.0889 -36.9959 0
M  V30 454 O -0.3546 1.2500 -37.4235 0
M  V30 455 N -0.6929 -1.0301 -37.7198 0
M  V30 456 C -0.0698 -1.5078 -38.9650 0
M  V30 457 C -1.0809 -2.2039 -39.8376 0
M  V30 458 H 0.3679 -0.6616 -39.5385 0
M  V30 459 H 0.6872 -2.2515 -38.6701 0
M  V30 460 O -2.3132 -2.0332 -39.6333 0
M  V30 461 N -0.6743 -3.1533 -40.8455 0
M  V30 462 H -1.4504 -1.6235 -37.2748 0
M  V30 463 C -0.0130 -2.7374 -42.0949 0
M  V30 464 H -0.8098 -4.1775 -40.6697 0
M  V30 465 H -0.4140 -1.7493 -42.3766 0
M  V30 466 H 1.0801 -2.6574 -41.9240 0
M  V30 467 C -0.3297 -3.7147 -43.2837 0
M  V30 468 C -0.2676 -3.0669 -44.6589 0
M  V30 469 C 0.5317 -4.9632 -43.3157 0
M  V30 470 C 1.9368 -4.8797 -43.2131 0
M  V30 471 C 2.7372 -6.0078 -43.4462 0
M  V30 472 C 2.1441 -7.2144 -43.7928 0
M  V30 473 C 0.7539 -7.3143 -43.9167 0
M  V30 474 C -0.0493 -6.1940 -43.6908 0
M  V30 475 H -1.1117 -6.2555 -43.8843 0
M  V30 476 H 2.4459 -3.9470 -43.0079 0
M  V30 477 H 3.8065 -5.9341 -43.3847 0
M  V30 478 H 2.7615 -8.0681 -44.0365 0
M  V30 479 H 0.3218 -8.2238 -44.2892 0
M  V30 480 C -1.2598 -3.3620 -45.6055 0
M  V30 481 C -1.1791 -2.8588 -46.9126 0
M  V30 482 C -0.1264 -2.0360 -47.2814 0
M  V30 483 C 0.8801 -1.7509 -46.3446 0
M  V30 484 C 0.8232 -2.2670 -45.0580 0
M  V30 485 H 1.6422 -2.0692 -44.3764 0
M  V30 486 H -2.0997 -3.9937 -45.3508 0
M  V30 487 H -1.9273 -3.1393 -47.6472 0
M  V30 488 H -0.0597 -1.6738 -48.3053 0
M  V30 489 H 1.7240 -1.1713 -46.6536 0
M  V30 490 H -1.3803 -4.0344 -43.1336 0
M  V30 491 C 3.7752 -4.9780 -40.0274 0
M  V30 492 O 2.9854 -4.9324 -39.0527 0
M  V30 493 C 5.2319 -3.6275 -41.5855 0
M  V30 494 C 4.1317 -3.7002 -40.7168 0
M  V30 495 C 5.5338 -2.4248 -42.2323 0
M  V30 496 C 4.7393 -1.2871 -42.0280 0
M  V30 497 C 3.3451 -2.5440 -40.5006 0
M  V30 498 C 3.6359 -1.3258 -41.1592 0
M  V30 499 H 5.8573 -4.4581 -41.7840 0
M  V30 500 H 6.3684 -2.3797 -42.9153 0
M  V30 501 H 2.4794 -2.6047 -39.8749 0
M  V30 502 C 2.8240 -0.1022 -40.9923 0
M  V30 503 O 3.1455 0.7352 -40.1155 0
M  V30 504 H 4.9931 -0.3906 -42.5576 0
M  V30 505 C -3.9793 -3.3932 -42.7060 0
M  V30 506 O -3.7524 -2.8660 -41.6009 0
M  V30 507 C -4.5378 -5.5999 -43.8535 0
M  V30 508 C -3.9513 -4.9011 -42.7893 0
M  V30 509 C -4.4057 -6.9844 -43.9293 0
M  V30 510 C -3.6299 -7.6921 -43.0088 0
M  V30 511 C -3.2528 -5.6442 -41.8009 0
M  V30 512 C -3.0011 -7.0313 -41.9492 0
M  V30 513 H -5.1089 -5.0743 -44.6110 0
M  V30 514 H -4.9004 -7.5036 -44.7456 0
M  V30 515 H -2.8325 -5.1075 -40.9457 0
M  V30 516 C -2.0798 -7.7169 -40.9937 0
M  V30 517 O -1.4913 -7.0288 -40.1174 0
M  V30 518 H -3.5388 -8.7577 -43.1624 0
M  V30 519 N -1.7841 -9.1269 -41.0678 0
M  V30 520 C 0.3711 -9.2761 -39.8816 0
M  V30 521 C 1.2421 -9.2385 -40.9821 0
M  V30 522 C 0.8361 -8.8074 -38.6278 0
M  V30 523 C 2.1064 -8.2364 -38.5077 0
M  V30 524 H 0.2100 -8.8843 -37.7451 0
M  V30 525 C 2.9316 -8.1255 -39.6402 0
M  V30 526 H 2.4362 -7.8492 -37.5394 0
M  V30 527 C 2.5248 -8.6789 -40.8551 0
M  V30 528 H 0.9324 -9.6456 -41.9275 0
M  V30 529 H 3.1997 -8.6743 -41.7033 0
M  V30 530 C -1.0217 -9.8353 -40.0185 0
M  V30 531 H -0.9602 -10.9238 -40.2696 0
M  V30 532 H -1.5690 -9.7629 -39.0445 0
M  V30 533 C 4.2785 -7.4357 -39.5327 0
M  V30 534 N 4.3464 -6.2428 -40.4092 0
M  V30 535 H 5.0772 -8.1531 -39.8179 0
M  V30 536 H 4.5014 -7.1262 -38.4993 0
M  V30 537 H 4.8933 -6.3308 -41.3042 0
M  V30 538 H -2.3381 -9.7453 -41.6920 0
M  V30 539 N 1.7245 0.1612 -41.8778 0
M  V30 540 C -0.5699 0.8815 -42.3033 0
M  V30 541 C -0.6737 0.5782 -43.6678 0
M  V30 542 C -1.6941 0.7140 -41.4743 0
M  V30 543 C -2.8523 0.1115 -41.9860 0
M  V30 544 H -1.6561 1.0177 -40.4351 0
M  V30 545 C -2.8878 -0.3761 -43.3108 0
M  V30 546 H -3.6971 -0.0193 -41.3273 0
M  V30 547 C -1.8150 -0.0645 -44.1578 0
M  V30 548 H 0.1717 0.7611 -44.3403 0
M  V30 549 H -1.8648 -0.3617 -45.1968 0
M  V30 550 C 0.7781 1.2769 -41.7276 0
M  V30 551 H 1.1814 2.1795 -42.2108 0
M  V30 552 H 0.6575 1.5295 -40.6536 0
M  V30 553 C -4.1123 -1.0818 -43.8506 0
M  V30 554 N -3.9667 -2.5584 -43.9009 0
M  V30 555 H -4.3410 -0.7116 -44.8634 0
M  V30 556 H -4.9924 -0.8300 -43.2116 0
M  V30 557 H -4.0832 -3.0182 -44.8286 0
M  V30 558 H 1.5492 -0.5346 -42.6286 0
M  V30 END ATOM
M  V30 BEGIN BOND
M  V30 1 1 3 4
M  V30 2 2 4 5
M  V30 3 1 4 12
M  V30 4 1 5 6
M  V30 5 1 5 13
M  V30 6 2 6 7
M  V30 7 1 6 14
M  V30 8 1 7 8
M  V30 9 1 7 9
M  V30 10 2 8 3
M  V30 11 1 8 11
M  V30 12 3 9 10
M  V30 13 1 15 16
M  V30 14 2 16 17
M  V30 15 1 16 24
M  V30 16 1 17 18
M  V30 17 1 17 25
M  V30 18 2 18 19
M  V30 19 1 18 26
M  V30 20 1 19 20
M  V30 21 1 19 21
M  V30 22 2 20 15
M  V30 23 1 20 23
M  V30 24 3 21 22
M  V30 25 1 27 28
M  V30 26 2 28 29
M  V30 27 1 28 34
M  V30 28 1 29 30
M  V30 29 2 30 31
M  V30 30 1 30 35
M  V30 31 1 31 32
M  V30 32 2 32 27
M  V30 33 1 32 33
M  V30 34 1 10 29
M  V30 35 1 22 31
M  V30 36 2 36 37
M  V30 37 1 36 38
M  V30 38 1 38 39
M  V30 39 1 38 45
M  V30 40 1 39 40
M  V30 41 1 39 41
M  V30 42 1 39 42
M  V30 43 2 40 43
M  V30 44 1 40 44
M  V30 45 1 44 46
M  V30 46 1 44 47
M  V30 47 1 46 48
M  V30 48 1 46 49
M  V30 49 1 50 51
M  V30 50 1 50 52
M  V30 51 1 50 73
M  V30 52 1 51 63
M  V30 53 1 52 53
M  V30 54 2 53 54
M  V30 55 1 53 59
M  V30 56 1 54 55
M  V30 57 1 54 60
M  V30 58 2 55 56
M  V30 59 1 55 61
M  V30 60 1 56 57
M  V30 61 1 56 62
M  V30 62 2 57 52
M  V30 63 1 57 58
M  V30 64 2 63 64
M  V30 65 1 63 69
M  V30 66 1 64 65
M  V30 67 1 64 70
M  V30 68 2 65 66
M  V30 69 1 65 71
M  V30 70 1 66 67
M  V30 71 1 66 72
M  V30 72 2 67 51
M  V30 73 1 67 68
M  V30 74 1 46 50
M  V30 75 2 74 75
M  V30 76 1 74 77
M  V30 77 1 76 77
M  V30 78 2 76 78
M  V30 79 1 76 82
M  V30 80 2 77 80
M  V30 81 1 78 79
M  V30 82 1 78 83
M  V30 83 1 79 87
M  V30 84 1 80 81
M  V30 85 1 80 84
M  V30 86 2 81 79
M  V30 87 2 85 86
M  V30 88 1 85 81
M  V30 89 2 88 89
M  V30 90 1 88 91
M  V30 91 1 90 91
M  V30 92 2 90 92
M  V30 93 1 90 96
M  V30 94 2 91 94
M  V30 95 1 92 93
M  V30 96 1 92 97
M  V30 97 1 93 101
M  V30 98 1 94 95
M  V30 99 1 94 98
M  V30 100 2 95 93
M  V30 101 2 99 100
M  V30 102 1 99 95
M  V30 103 1 102 113
M  V30 104 1 102 121
M  V30 105 2 103 104
M  V30 106 1 103 105
M  V30 107 1 104 111
M  V30 108 2 105 106
M  V30 109 1 105 107
M  V30 110 1 106 108
M  V30 111 1 106 109
M  V30 112 2 108 110
M  V30 113 1 108 116
M  V30 114 1 110 104
M  V30 115 1 110 112
M  V30 116 1 113 103
M  V30 117 1 113 114
M  V30 118 1 113 115
M  V30 119 1 116 117
M  V30 120 1 116 118
M  V30 121 1 116 119
M  V30 122 1 117 120
M  V30 123 1 122 133
M  V30 124 1 122 141
M  V30 125 2 123 124
M  V30 126 1 123 125
M  V30 127 1 124 131
M  V30 128 2 125 126
M  V30 129 1 125 127
M  V30 130 1 126 128
M  V30 131 1 126 129
M  V30 132 2 128 130
M  V30 133 1 128 136
M  V30 134 1 130 124
M  V30 135 1 130 132
M  V30 136 1 133 123
M  V30 137 1 133 134
M  V30 138 1 133 135
M  V30 139 1 136 137
M  V30 140 1 136 138
M  V30 141 1 136 139
M  V30 142 1 137 140
M  V30 143 1 74 117
M  V30 144 1 99 102
M  V30 145 1 88 137
M  V30 146 1 85 122
M  V30 147 1 27 36
M  V30 148 1 142 143
M  V30 149 2 143 144
M  V30 150 1 143 151
M  V30 151 1 144 145
M  V30 152 1 144 152
M  V30 153 2 145 146
M  V30 154 1 145 153
M  V30 155 1 146 147
M  V30 156 1 146 148
M  V30 157 2 147 142
M  V30 158 1 147 150
M  V30 159 3 148 149
M  V30 160 1 154 155
M  V30 161 2 155 156
M  V30 162 1 155 163
M  V30 163 1 156 157
M  V30 164 1 156 164
M  V30 165 2 157 158
M  V30 166 1 157 165
M  V30 167 1 158 159
M  V30 168 1 158 160
M  V30 169 2 159 154
M  V30 170 1 159 162
M  V30 171 3 160 161
M  V30 172 1 166 167
M  V30 173 2 167 168
M  V30 174 1 167 173
M  V30 175 1 168 169
M  V30 176 2 169 170
M  V30 177 1 169 174
M  V30 178 1 170 171
M  V30 179 2 171 166
M  V30 180 1 171 172
M  V30 181 1 149 168
M  V30 182 1 161 170
M  V30 183 2 175 176
M  V30 184 1 175 177
M  V30 185 1 177 178
M  V30 186 1 177 184
M  V30 187 1 178 179
M  V30 188 1 178 180
M  V30 189 1 178 181
M  V30 190 2 179 182
M  V30 191 1 179 183
M  V30 192 1 183 185
M  V30 193 1 183 186
M  V30 194 1 185 187
M  V30 195 1 185 188
M  V30 196 1 189 190
M  V30 197 1 189 191
M  V30 198 1 189 212
M  V30 199 1 190 202
M  V30 200 1 191 192
M  V30 201 2 192 193
M  V30 202 1 192 198
M  V30 203 1 193 194
M  V30 204 1 193 199
M  V30 205 2 194 195
M  V30 206 1 194 200
M  V30 207 1 195 196
M  V30 208 1 195 201
M  V30 209 2 196 191
M  V30 210 1 196 197
M  V30 211 2 202 203
M  V30 212 1 202 208
M  V30 213 1 203 204
M  V30 214 1 203 209
M  V30 215 2 204 205
M  V30 216 1 204 210
M  V30 217 1 205 206
M  V30 218 1 205 211
M  V30 219 2 206 190
M  V30 220 1 206 207
M  V30 221 1 185 189
M  V30 222 2 213 214
M  V30 223 1 213 216
M  V30 224 1 215 216
M  V30 225 2 215 217
M  V30 226 1 215 221
M  V30 227 2 216 219
M  V30 228 1 217 218
M  V30 229 1 217 222
M  V30 230 1 218 226
M  V30 231 1 219 220
M  V30 232 1 219 223
M  V30 233 2 220 218
M  V30 234 2 224 225
M  V30 235 1 224 220
M  V30 236 2 227 228
M  V30 237 1 227 230
M  V30 238 1 229 230
M  V30 239 2 229 231
M  V30 240 1 229 235
M  V30 241 2 230 233
M  V30 242 1 231 232
M  V30 243 1 231 236
M  V30 244 1 232 240
M  V30 245 1 233 234
M  V30 246 1 233 237
M  V30 247 2 234 232
M  V30 248 2 238 239
M  V30 249 1 238 234
M  V30 250 1 241 252
M  V30 251 1 241 260
M  V30 252 2 242 243
M  V30 253 1 242 244
M  V30 254 1 243 250
M  V30 255 2 244 245
M  V30 256 1 244 246
M  V30 257 1 245 247
M  V30 258 1 245 248
M  V30 259 2 247 249
M  V30 260 1 247 255
M  V30 261 1 249 243
M  V30 262 1 249 251
M  V30 263 1 252 242
M  V30 264 1 252 253
M  V30 265 1 252 254
M  V30 266 1 255 256
M  V30 267 1 255 257
M  V30 268 1 255 258
M  V30 269 1 256 259
M  V30 270 1 261 272
M  V30 271 1 261 280
M  V30 272 2 262 263
M  V30 273 1 262 264
M  V30 274 1 263 270
M  V30 275 2 264 265
M  V30 276 1 264 266
M  V30 277 1 265 267
M  V30 278 1 265 268
M  V30 279 2 267 269
M  V30 280 1 267 275
M  V30 281 1 269 263
M  V30 282 1 269 271
M  V30 283 1 272 262
M  V30 284 1 272 273
M  V30 285 1 272 274
M  V30 286 1 275 276
M  V30 287 1 275 277
M  V30 288 1 275 278
M  V30 289 1 276 279
M  V30 290 1 213 256
M  V30 291 1 238 241
M  V30 292 1 227 276
M  V30 293 1 224 261
M  V30 294 1 166 175
M  V30 295 1 281 282
M  V30 296 2 282 283
M  V30 297 1 282 290
M  V30 298 1 283 284
M  V30 299 1 283 291
M  V30 300 2 284 285
M  V30 301 1 284 292
M  V30 302 1 285 286
M  V30 303 1 285 287
M  V30 304 2 286 281
M  V30 305 1 286 289
M  V30 306 3 287 288
M  V30 307 1 293 294
M  V30 308 2 294 295
M  V30 309 1 294 302
M  V30 310 1 295 296
M  V30 311 1 295 303
M  V30 312 2 296 297
M  V30 313 1 296 304
M  V30 314 1 297 298
M  V30 315 1 297 299
M  V30 316 2 298 293
M  V30 317 1 298 301
M  V30 318 3 299 300
M  V30 319 1 305 306
M  V30 320 2 306 307
M  V30 321 1 306 312
M  V30 322 1 307 308
M  V30 323 2 308 309
M  V30 324 1 308 313
M  V30 325 1 309 310
M  V30 326 2 310 305
M  V30 327 1 310 311
M  V30 328 1 288 307
M  V30 329 1 300 309
M  V30 330 2 314 315
M  V30 331 1 314 316
M  V30 332 1 316 317
M  V30 333 1 316 323
M  V30 334 1 317 318
M  V30 335 1 317 319
M  V30 336 1 317 320
M  V30 337 2 318 321
M  V30 338 1 318 322
M  V30 339 1 322 324
M  V30 340 1 322 325
M  V30 341 1 324 326
M  V30 342 1 324 327
M  V30 343 1 328 329
M  V30 344 1 328 330
M  V30 345 1 328 351
M  V30 346 1 329 341
M  V30 347 1 330 331
M  V30 348 2 331 332
M  V30 349 1 331 337
M  V30 350 1 332 333
M  V30 351 1 332 338
M  V30 352 2 333 334
M  V30 353 1 333 339
M  V30 354 1 334 335
M  V30 355 1 334 340
M  V30 356 2 335 330
M  V30 357 1 335 336
M  V30 358 2 341 342
M  V30 359 1 341 347
M  V30 360 1 342 343
M  V30 361 1 342 348
M  V30 362 2 343 344
M  V30 363 1 343 349
M  V30 364 1 344 345
M  V30 365 1 344 350
M  V30 366 2 345 329
M  V30 367 1 345 346
M  V30 368 1 324 328
M  V30 369 2 352 353
M  V30 370 1 352 355
M  V30 371 1 354 355
M  V30 372 2 354 356
M  V30 373 1 354 360
M  V30 374 2 355 358
M  V30 375 1 356 357
M  V30 376 1 356 361
M  V30 377 1 357 365
M  V30 378 1 358 359
M  V30 379 1 358 362
M  V30 380 2 359 357
M  V30 381 2 363 364
M  V30 382 1 363 359
M  V30 383 2 366 367
M  V30 384 1 366 369
M  V30 385 1 368 369
M  V30 386 2 368 370
M  V30 387 1 368 374
M  V30 388 2 369 372
M  V30 389 1 370 371
M  V30 390 1 370 375
M  V30 391 1 371 379
M  V30 392 1 372 373
M  V30 393 1 372 376
M  V30 394 2 373 371
M  V30 395 2 377 378
M  V30 396 1 377 373
M  V30 397 1 380 391
M  V30 398 1 380 399
M  V30 399 2 381 382
M  V30 400 1 381 383
M  V30 401 1 382 389
M  V30 402 2 383 384
M  V30 403 1 383 385
M  V30 404 1 384 386
M  V30 405 1 384 387
M  V30 406 2 386 388
M  V30 407 1 386 394
M  V30 408 1 388 382
M  V30 409 1 388 390
M  V30 410 1 391 381
M  V30 411 1 391 392
M  V30 412 1 391 393
M  V30 413 1 394 395
M  V30 414 1 394 396
M  V30 415 1 394 397
M  V30 416 1 395 398
M  V30 417 1 400 411
M  V30 418 1 400 419
M  V30 419 2 401 402
M  V30 420 1 401 403
M  V30 421 1 402 409
M  V30 422 2 403 404
M  V30 423 1 403 405
M  V30 424 1 404 406
M  V30 425 1 404 407
M  V30 426 2 406 408
M  V30 427 1 406 414
M  V30 428 1 408 402
M  V30 429 1 408 410
M  V30 430 1 411 401
M  V30 431 1 411 412
M  V30 432 1 411 413
M  V30 433 1 414 415
M  V30 434 1 414 416
M  V30 435 1 414 417
M  V30 436 1 415 418
M  V30 437 1 352 395
M  V30 438 1 377 380
M  V30 439 1 366 415
M  V30 440 1 363 400
M  V30 441 1 305 314
M  V30 442 1 420 421
M  V30 443 2 421 422
M  V30 444 1 421 429
M  V30 445 1 422 423
M  V30 446 1 422 430
M  V30 447 2 423 424
M  V30 448 1 423 431
M  V30 449 1 424 425
M  V30 450 1 424 426
M  V30 451 2 425 420
M  V30 452 1 425 428
M  V30 453 3 426 427
M  V30 454 1 432 433
M  V30 455 2 433 434
M  V30 456 1 433 441
M  V30 457 1 434 435
M  V30 458 1 434 442
M  V30 459 2 435 436
M  V30 460 1 435 443
M  V30 461 1 436 437
M  V30 462 1 436 438
M  V30 463 2 437 432
M  V30 464 1 437 440
M  V30 465 3 438 439
M  V30 466 1 444 445
M  V30 467 2 445 446
M  V30 468 1 445 451
M  V30 469 1 446 447
M  V30 470 2 447 448
M  V30 471 1 447 452
M  V30 472 1 448 449
M  V30 473 2 449 444
M  V30 474 1 449 450
M  V30 475 1 427 446
M  V30 476 1 439 448
M  V30 477 2 453 454
M  V30 478 1 453 455
M  V30 479 1 455 456
M  V30 480 1 455 462
M  V30 481 1 456 457
M  V30 482 1 456 458
M  V30 483 1 456 459
M  V30 484 2 457 460
M  V30 485 1 457 461
M  V30 486 1 461 463
M  V30 487 1 461 464
M  V30 488 1 463 465
M  V30 489 1 463 466
M  V30 490 1 467 468
M  V30 491 1 467 469
M  V30 492 1 467 490
M  V30 493 1 468 480
M  V30 494 1 469 470
M  V30 495 2 470 471
M  V30 496 1 470 476
M  V30 497 1 471 472
M  V30 498 1 471 477
M  V30 499 2 472 473
M  V30 500 1 472 478
M  V30 501 1 473 474
M  V30 502 1 473 479
M  V30 503 2 474 469
M  V30 504 1 474 475
M  V30 505 2 480 481
M  V30 506 1 480 486
M  V30 507 1 481 482
M  V30 508 1 481 487
M  V30 509 2 482 483
M  V30 510 1 482 488
M  V30 511 1 483 484
M  V30 512 1 483 489
M  V30 513 2 484 468
M  V30 514 1 484 485
M  V30 515 1 463 467
M  V30 516 2 491 492
M  V30 517 1 491 494
M  V30 518 1 493 494
M  V30 519 2 493 495
M  V30 520 1 493 499
M  V30 521 2 494 497
M  V30 522 1 495 496
M  V30 523 1 495 500
M  V30 524 1 496 504
M  V30 525 1 497 498
M  V30 526 1 497 501
M  V30 527 2 498 496
M  V30 528 2 502 503
M  V30 529 1 502 498
M  V30 530 2 505 506
M  V30 531 1 505 508
M  V30 532 1 507 508
M  V30 533 2 507 509
M  V30 534 1 507 513
M  V30 535 2 508 511
M  V30 536 1 509 510
M  V30 537 1 509 514
M  V30 538 1 510 518
M  V30 539 1 511 512
M  V30 540 1 511 515
M  V30 541 2 512 510
M  V30 542 2 516 517
M  V30 543 1 516 512
M  V30 544 1 519 530
M  V30 545 1 519 538
M  V30 546 2 520 521
M  V30 547 1 520 522
M  V30 548 1 521 528
M  V30 549 2 522 523
M  V30 550 1 522 524
M  V30 551 1 523 525
M  V30 552 1 523 526
M  V30 553 2 525 527
M  V30 554 1 525 533
M  V30 555 1 527 521
M  V30 556 1 527 529
M  V30 557 1 530 520
M  V30 558 1 530 531
M  V30 559 1 530 532
M  V30 560 1 533 534
M  V30 561 1 533 535
M  V30 562 1 533 536
M  V30 563 1 534 537
M  V30 564 1 539 550
M  V30 565 1 539 558
M  V30 566 2 540 541
M  V30 567 1 540 542
M  V30 568 1 541 548
M  V30 569 2 542 543
M  V30 570 1 542 544
M  V30 571 1 543 545
M  V30 572 1 543 546
M  V30 573 2 545 547
M  V30 574 1 545 553
M  V30 575 1 547 541
M  V30 576 1 547 549
M  V30 577 1 550 540
M  V30 578 1 550 551
M  V30 579 1 550 552
M  V30 580 1 553 554
M  V30 581 1 553 555
M  V30 582 1 553 556
M  V30 583 1 554 557
M  V30 584 1 491 534
M  V30 585 1 516 519
M  V30 586 1 505 554
M  V30 587 1 502 539
M  V30 588 1 444 453
M  V30 589 9 3 1
M  V30 590 9 142 1
M  V30 591 9 281 1
M  V30 592 9 420 1
M  V30 593 9 15 2
M  V30 594 9 154 2
M  V30 595 9 293 2
M  V30 596 9 432 2
M  V30 END BOND
M  V30 END CTAB
M  END

$$$$
