
     RDKit          3D

  0  0  0  0  0  0  0  0  0  0999 V3000
M  V30 BEGIN CTAB
M  V30 COUNTS 558 596 0 0 0
M  V30 BEGIN ATOM
M  V30 1 Pd -3.0063 5.9649 1.4963 0 CHG=2
M  V30 2 Pd -2.9247 -5.0135 1.4713 0 CHG=2
M  V30 3 N -1.0110 6.3823 1.2835 0
M  V30 4 C -0.7550 7.3015 0.3138 0
M  V30 5 C 0.4645 7.2513 -0.3871 0
M  V30 6 C 1.3725 6.2458 -0.0942 0
M  V30 7 C 1.0857 5.2985 0.8989 0
M  V30 8 C -0.1204 5.4069 1.5986 0
M  V30 9 C 1.9669 4.1832 1.1015 0
M  V30 10 C 2.6509 3.1970 1.1870 0
M  V30 11 H -0.3926 4.6773 2.3468 0
M  V30 12 H -1.4814 8.0753 0.0797 0
M  V30 13 H 0.6775 7.9955 -1.1234 0
M  V30 14 H 2.3009 6.1983 -0.6511 0
M  V30 15 N -1.0110 -4.6254 1.2835 0
M  V30 16 C -0.5469 -5.8885 1.1373 0
M  V30 17 C 0.7991 -6.1147 0.8347 0
M  V30 18 C 1.6728 -5.0186 0.7212 0
M  V30 19 C 1.1874 -3.7237 0.9016 0
M  V30 20 C -0.1783 -3.5421 1.1695 0
M  V30 21 C 2.0575 -2.5934 0.8230 0
M  V30 22 C 2.7791 -1.6190 0.7849 0
M  V30 23 H -0.5848 -2.5443 1.2987 0
M  V30 24 H -1.2206 -6.7350 1.3015 0
M  V30 25 H 1.1983 -7.1233 0.7641 0
M  V30 26 H 2.7048 -5.1897 0.4774 0
M  V30 27 C 5.6037 0.8186 1.3075 0
M  V30 28 C 4.8315 2.0195 1.3793 0
M  V30 29 C 3.4359 1.9806 1.1849 0
M  V30 30 C 2.8349 0.8010 0.8031 0
M  V30 31 C 3.5538 -0.3975 0.8069 0
M  V30 32 C 4.9237 -0.3966 1.0704 0
M  V30 33 H 5.4951 -1.3052 1.0484 0
M  V30 34 H 5.3309 2.9946 1.5920 0
M  V30 35 H 1.7552 0.7740 0.6120 0
M  V30 36 C 7.1179 0.9674 1.1488 0
M  V30 37 O 7.5455 2.1285 0.9288 0
M  V30 38 N 7.8418 -0.1517 0.5906 0
M  V30 39 C 9.0870 -0.6293 1.2138 0
M  V30 40 C 9.9596 -1.3255 0.2025 0
M  V30 41 H 9.6605 0.2169 1.6513 0
M  V30 42 H 8.7921 -1.3731 1.9707 0
M  V30 43 O 9.7553 -1.1548 -1.0298 0
M  V30 44 N 10.9675 -2.2748 0.6092 0
M  V30 45 H 7.3968 -0.7450 -0.1668 0
M  V30 46 C 12.2169 -1.8590 1.2704 0
M  V30 47 H 10.7917 -3.2990 0.4737 0
M  V30 48 H 12.4986 -0.8708 0.8695 0
M  V30 49 H 12.0460 -1.7790 2.3636 0
M  V30 50 C 13.4057 -2.8362 0.9538 0
M  V30 51 C 14.7809 -2.1885 1.0159 0
M  V30 52 C 13.4378 -4.0847 1.8152 0
M  V30 53 C 13.3351 -4.0013 3.2204 0
M  V30 54 C 13.5682 -5.1293 4.0207 0
M  V30 55 C 13.9149 -6.3361 3.4276 0
M  V30 56 C 14.0388 -6.4360 2.0374 0
M  V30 57 C 13.8128 -5.3155 1.2342 0
M  V30 58 H 14.0063 -5.3771 0.1718 0
M  V30 59 H 13.1298 -3.0685 3.7293 0
M  V30 60 H 13.5067 -5.0557 5.0900 0
M  V30 61 H 14.1585 -7.1896 4.0450 0
M  V30 62 H 14.4112 -7.3453 1.6053 0
M  V30 63 C 15.7276 -2.4835 0.0237 0
M  V30 64 C 17.0346 -1.9803 0.1045 0
M  V30 65 C 17.4035 -1.1575 1.1571 0
M  V30 66 C 16.4665 -0.8724 2.1636 0
M  V30 67 C 15.1800 -1.3886 2.1067 0
M  V30 68 H 14.4985 -1.1908 2.9257 0
M  V30 69 H 15.4728 -3.1152 -0.8163 0
M  V30 70 H 17.7691 -2.2608 -0.6439 0
M  V30 71 H 18.4273 -0.7954 1.2238 0
M  V30 72 H 16.7756 -0.2929 3.0075 0
M  V30 73 H 13.2556 -3.1560 -0.0968 0
M  V30 74 C 10.1494 -4.0996 5.0587 0
M  V30 75 O 9.1746 -4.0539 4.2689 0
M  V30 76 C 11.7075 -2.7490 6.5154 0
M  V30 77 C 10.8388 -2.8219 5.4152 0
M  V30 78 C 12.3543 -1.5464 6.8173 0
M  V30 79 C 12.1500 -0.4087 6.0228 0
M  V30 80 C 10.6226 -1.6656 4.6286 0
M  V30 81 C 11.2812 -0.4473 4.9194 0
M  V30 82 H 11.9061 -3.5797 7.1408 0
M  V30 83 H 13.0373 -1.5012 7.6519 0
M  V30 84 H 9.9969 -1.7263 3.7629 0
M  V30 85 C 11.1143 0.7762 4.1076 0
M  V30 86 O 10.2375 1.6137 4.4290 0
M  V30 87 H 12.6796 0.4878 6.2766 0
M  V30 88 C 12.8281 -2.5147 -2.6958 0
M  V30 89 O 11.7229 -1.9876 -2.4689 0
M  V30 90 C 13.9755 -4.7214 -3.2543 0
M  V30 91 C 12.9113 -4.0227 -2.6678 0
M  V30 92 C 14.0513 -6.1059 -3.1223 0
M  V30 93 C 13.1308 -6.8137 -2.3464 0
M  V30 94 C 11.9229 -4.7657 -1.9693 0
M  V30 95 C 12.0711 -6.1528 -1.7176 0
M  V30 96 H 14.7330 -4.1958 -3.8254 0
M  V30 97 H 14.8677 -6.6251 -3.6169 0
M  V30 98 H 11.0677 -4.2291 -1.5490 0
M  V30 99 C 11.1157 -6.8384 -0.7964 0
M  V30 100 O 10.2394 -6.1503 -0.2079 0
M  V30 101 H 13.2844 -7.8793 -2.2553 0
M  V30 102 N 11.1898 -8.2484 -0.5007 0
M  V30 103 C 10.0036 -8.3977 1.6545 0
M  V30 104 C 11.1042 -8.3601 2.5256 0
M  V30 105 C 8.7499 -7.9290 2.1196 0
M  V30 106 C 8.6297 -7.3580 3.3900 0
M  V30 107 H 7.8671 -8.0059 1.4935 0
M  V30 108 C 9.7622 -7.2471 4.2150 0
M  V30 109 H 7.6615 -6.9708 3.7197 0
M  V30 110 C 10.9771 -7.8004 3.8083 0
M  V30 111 H 12.0495 -8.7672 2.2159 0
M  V30 112 H 11.8253 -7.7959 4.4831 0
M  V30 113 C 10.1405 -8.9568 0.2617 0
M  V30 114 H 10.3916 -10.0453 0.3232 0
M  V30 115 H 9.1664 -8.8844 -0.2856 0
M  V30 116 C 9.6546 -6.5573 5.5620 0
M  V30 117 N 10.5312 -5.3644 5.6299 0
M  V30 118 H 9.9399 -7.2747 6.3608 0
M  V30 119 H 8.6213 -6.2477 5.7849 0
M  V30 120 H 11.4262 -5.4523 6.1768 0
M  V30 121 H 11.8140 -8.8668 -1.0546 0
M  V30 122 N 11.9998 1.0396 3.0080 0
M  V30 123 C 12.4253 1.7599 0.7136 0
M  V30 124 C 13.7898 1.4567 0.6098 0
M  V30 125 C 11.5963 1.5925 -0.4106 0
M  V30 126 C 12.1080 0.9900 -1.5688 0
M  V30 127 H 10.5571 1.8962 -0.3725 0
M  V30 128 C 13.4329 0.5024 -1.6043 0
M  V30 129 H 11.4493 0.8591 -2.4136 0
M  V30 130 C 14.2797 0.8140 -0.5316 0
M  V30 131 H 14.4623 1.6397 1.4553 0
M  V30 132 H 15.3188 0.5167 -0.5814 0
M  V30 133 C 11.8496 2.1554 2.0615 0
M  V30 134 H 12.3328 3.0579 2.4649 0
M  V30 135 H 10.7756 2.4079 1.9410 0
M  V30 136 C 13.9726 -0.2033 -2.8289 0
M  V30 137 N 14.0229 -1.6799 -2.6831 0
M  V30 138 H 14.9854 0.1669 -3.0575 0
M  V30 139 H 13.3335 0.0485 -3.7089 0
M  V30 140 H 14.9506 -2.1397 -2.7997 0
M  V30 141 H 12.7506 0.3438 2.8327 0
M  V30 142 N -3.1173 5.9265 3.5032 0
M  V30 143 C -2.1475 6.8457 3.7591 0
M  V30 144 C -1.4467 6.7955 4.9787 0
M  V30 145 C -1.7396 5.7901 5.8867 0
M  V30 146 C -2.7326 4.8427 5.5999 0
M  V30 147 C -3.4324 4.9512 4.3937 0
M  V30 148 C -2.9352 3.7274 6.4811 0
M  V30 149 C -3.0208 2.7412 7.1651 0
M  V30 150 H -4.1806 4.2215 4.1215 0
M  V30 151 H -1.9135 7.6195 3.0328 0
M  V30 152 H -0.7103 7.5397 5.1916 0
M  V30 153 H -1.1827 5.7425 6.8151 0
M  V30 154 N -3.1173 -5.0812 3.5032 0
M  V30 155 C -2.9711 -6.3443 3.9673 0
M  V30 156 C -2.6684 -6.5705 5.3133 0
M  V30 157 C -2.5549 -5.4744 6.1870 0
M  V30 158 C -2.7354 -4.1795 5.7016 0
M  V30 159 C -3.0032 -3.9979 4.3359 0
M  V30 160 C -2.6568 -3.0492 6.5717 0
M  V30 161 C -2.6187 -2.0748 7.2933 0
M  V30 162 H -3.1324 -3.0001 3.9294 0
M  V30 163 H -3.1353 -7.1908 3.2936 0
M  V30 164 H -2.5979 -7.5791 5.7125 0
M  V30 165 H -2.3111 -5.6455 7.2190 0
M  V30 166 C -3.1413 0.3628 10.1178 0
M  V30 167 C -3.2131 1.5637 9.3457 0
M  V30 168 C -3.0187 1.5248 7.9501 0
M  V30 169 C -2.6369 0.3452 7.3491 0
M  V30 170 C -2.6406 -0.8533 8.0680 0
M  V30 171 C -2.9042 -0.8524 9.4379 0
M  V30 172 H -2.8822 -1.7610 10.0092 0
M  V30 173 H -3.4258 2.5388 9.8451 0
M  V30 174 H -2.4458 0.3182 6.2694 0
M  V30 175 C -2.9826 0.5116 11.6321 0
M  V30 176 O -2.7626 1.6727 12.0597 0
M  V30 177 N -2.4244 -0.6074 12.3560 0
M  V30 178 C -3.0475 -1.0851 13.6012 0
M  V30 179 C -2.0363 -1.7813 14.4738 0
M  V30 180 H -3.4851 -0.2389 14.1747 0
M  V30 181 H -3.8045 -1.8289 13.3063 0
M  V30 182 O -0.8040 -1.6106 14.2695 0
M  V30 183 N -2.4429 -2.7306 15.4817 0
M  V30 184 H -1.6669 -1.2008 11.9110 0
M  V30 185 C -3.1042 -2.3148 16.7311 0
M  V30 186 H -2.3074 -3.7548 15.3059 0
M  V30 187 H -2.7033 -1.3266 17.0128 0
M  V30 188 H -4.1974 -2.2347 16.5602 0
M  V30 189 C -2.7875 -3.2920 17.9198 0
M  V30 190 C -2.8497 -2.6442 19.2951 0
M  V30 191 C -3.6489 -4.5405 17.9520 0
M  V30 192 C -5.0541 -4.4571 17.8493 0
M  V30 193 C -5.8544 -5.5851 18.0824 0
M  V30 194 C -5.2613 -6.7918 18.4291 0
M  V30 195 C -3.8711 -6.8917 18.5529 0
M  V30 196 C -3.0680 -5.7713 18.3270 0
M  V30 197 H -2.0055 -5.8329 18.5205 0
M  V30 198 H -5.5631 -3.5243 17.6440 0
M  V30 199 H -6.9238 -5.5115 18.0209 0
M  V30 200 H -5.8787 -7.6454 18.6727 0
M  V30 201 H -3.4391 -7.8011 18.9254 0
M  V30 202 C -1.8575 -2.9393 20.2417 0
M  V30 203 C -1.9382 -2.4361 21.5488 0
M  V30 204 C -2.9909 -1.6133 21.9176 0
M  V30 205 C -3.9974 -1.3282 20.9807 0
M  V30 206 C -3.9405 -1.8444 19.6942 0
M  V30 207 H -4.7595 -1.6466 19.0126 0
M  V30 208 H -1.0174 -3.5710 19.9870 0
M  V30 209 H -1.1899 -2.7166 22.2833 0
M  V30 210 H -3.0576 -1.2511 22.9415 0
M  V30 211 H -4.8412 -0.7486 21.2897 0
M  V30 212 H -1.7370 -3.6118 17.7697 0
M  V30 213 C -6.8924 -4.5554 14.6636 0
M  V30 214 O -6.1026 -4.5097 13.6888 0
M  V30 215 C -8.3492 -3.2048 16.2217 0
M  V30 216 C -7.2490 -3.2776 15.3530 0
M  V30 217 C -8.6511 -2.0022 16.8685 0
M  V30 218 C -7.8566 -0.8645 16.6642 0
M  V30 219 C -6.4623 -2.1214 15.1368 0
M  V30 220 C -6.7532 -0.9031 15.7954 0
M  V30 221 H -8.9746 -4.0355 16.4202 0
M  V30 222 H -9.4856 -1.9570 17.5515 0
M  V30 223 H -5.5967 -2.1821 14.5111 0
M  V30 224 C -5.9413 0.3204 15.6285 0
M  V30 225 O -6.2627 1.1579 14.7517 0
M  V30 226 H -8.1104 0.0320 17.1938 0
M  V30 227 C 0.8621 -2.9705 17.3422 0
M  V30 228 O 0.6352 -2.4434 16.2371 0
M  V30 229 C 1.4205 -5.1772 18.4897 0
M  V30 230 C 0.8341 -4.4785 17.4254 0
M  V30 231 C 1.2885 -6.5617 18.5655 0
M  V30 232 C 0.5126 -7.2695 17.6450 0
M  V30 233 C 0.1356 -5.2215 16.4371 0
M  V30 234 C -0.1161 -6.6086 16.5853 0
M  V30 235 H 1.9916 -4.6516 19.2472 0
M  V30 236 H 1.7831 -7.0808 19.3818 0
M  V30 237 H -0.2847 -4.6848 15.5819 0
M  V30 238 C -1.0374 -7.2942 15.6299 0
M  V30 239 O -1.6259 -6.6061 14.7536 0
M  V30 240 H 0.4216 -8.3351 17.7986 0
M  V30 241 N -1.3331 -8.7042 15.7040 0
M  V30 242 C -3.4883 -8.8535 14.5177 0
M  V30 243 C -4.3594 -8.8158 15.6184 0
M  V30 244 C -3.9534 -8.3848 13.2641 0
M  V30 245 C -5.2237 -7.8138 13.1439 0
M  V30 246 H -3.3273 -8.4616 12.3813 0
M  V30 247 C -6.0488 -7.7029 14.2764 0
M  V30 248 H -5.5534 -7.4266 12.1757 0
M  V30 249 C -5.6420 -8.2562 15.4913 0
M  V30 250 H -4.0496 -9.2230 16.5637 0
M  V30 251 H -6.3169 -8.2517 16.3395 0
M  V30 252 C -2.0955 -9.4126 14.6547 0
M  V30 253 H -2.1570 -10.5011 14.9058 0
M  V30 254 H -1.5482 -9.3402 13.6806 0
M  V30 255 C -7.3957 -7.0130 14.1688 0
M  V30 256 N -7.4636 -5.8202 15.0454 0
M  V30 257 H -8.1945 -7.7305 14.4540 0
M  V30 258 H -7.6186 -6.7035 13.1354 0
M  V30 259 H -8.0105 -5.9081 15.9403 0
M  V30 260 H -0.7792 -9.3226 16.3282 0
M  V30 261 N -4.8417 0.5838 16.5140 0
M  V30 262 C -2.5473 1.3042 16.9395 0
M  V30 263 C -2.4435 1.0009 18.3040 0
M  V30 264 C -1.4232 1.1367 16.1105 0
M  V30 265 C -0.2649 0.5342 16.6222 0
M  V30 266 H -1.4612 1.4404 15.0713 0
M  V30 267 C -0.2295 0.0466 17.9471 0
M  V30 268 H 0.5799 0.4034 15.9634 0
M  V30 269 C -1.3022 0.3582 18.7939 0
M  V30 270 H -3.2890 1.1839 18.9765 0
M  V30 271 H -1.2524 0.0609 19.8330 0
M  V30 272 C -3.8953 1.6996 16.3638 0
M  V30 273 H -4.2987 2.6022 16.8469 0
M  V30 274 H -3.7748 1.9521 15.2898 0
M  V30 275 C 0.9951 -0.6591 18.4868 0
M  V30 276 N 0.8494 -2.1357 18.5371 0
M  V30 277 H 1.2238 -0.2889 19.4996 0
M  V30 278 H 1.8752 -0.4073 17.8477 0
M  V30 279 H 0.9659 -2.5955 19.4648 0
M  V30 280 H -4.6665 -0.1119 17.2648 0
M  V30 281 N -5.0069 5.8234 1.3432 0
M  V30 282 C -5.2629 6.7426 2.3130 0
M  V30 283 C -6.4824 6.6924 3.0138 0
M  V30 284 C -7.3904 5.6870 2.7209 0
M  V30 285 C -7.1037 4.7396 1.7279 0
M  V30 286 C -5.8975 4.8480 1.0281 0
M  V30 287 C -7.9848 3.6243 1.5253 0
M  V30 288 C -8.6688 2.6381 1.4397 0
M  V30 289 H -5.6253 4.1184 0.2799 0
M  V30 290 H -4.5365 7.5164 2.5470 0
M  V30 291 H -6.6954 7.4366 3.7501 0
M  V30 292 H -8.3188 5.6394 3.2778 0
M  V30 293 N -5.0069 -5.1843 1.3432 0
M  V30 294 C -5.4710 -6.4474 1.4894 0
M  V30 295 C -6.8170 -6.6736 1.7921 0
M  V30 296 C -7.6907 -5.5775 1.9056 0
M  V30 297 C -7.2053 -4.2826 1.7251 0
M  V30 298 C -5.8396 -4.1010 1.4572 0
M  V30 299 C -8.0755 -3.1523 1.8037 0
M  V30 300 C -8.7970 -2.1779 1.8418 0
M  V30 301 H -5.4331 -3.1032 1.3280 0
M  V30 302 H -4.7973 -7.2939 1.3252 0
M  V30 303 H -7.2162 -7.6822 1.8626 0
M  V30 304 H -8.7227 -5.7486 2.1494 0
M  V30 305 C -11.6216 0.2597 1.3192 0
M  V30 306 C -10.8495 1.4606 1.2474 0
M  V30 307 C -9.4538 1.4217 1.4418 0
M  V30 308 C -8.8528 0.2421 1.8236 0
M  V30 309 C -9.5717 -0.9564 1.8198 0
M  V30 310 C -10.9416 -0.9555 1.5563 0
M  V30 311 H -11.5130 -1.8641 1.5783 0
M  V30 312 H -11.3488 2.4357 1.0347 0
M  V30 313 H -7.7731 0.2151 2.0147 0
M  V30 314 C -13.1358 0.4085 1.4779 0
M  V30 315 O -13.5634 1.5696 1.6979 0
M  V30 316 N -13.8597 -0.7106 2.0361 0
M  V30 317 C -15.1049 -1.1882 1.4130 0
M  V30 318 C -15.9775 -1.8844 2.4242 0
M  V30 319 H -15.6784 -0.3420 0.9754 0
M  V30 320 H -14.8100 -1.9320 0.6560 0
M  V30 321 O -15.7732 -1.7137 3.6565 0
M  V30 322 N -16.9854 -2.8337 2.0176 0
M  V30 323 H -13.4147 -1.3039 2.7936 0
M  V30 324 C -18.2348 -2.4179 1.3563 0
M  V30 325 H -16.8096 -3.8579 2.1531 0
M  V30 326 H -18.5165 -1.4297 1.7572 0
M  V30 327 H -18.0639 -2.3379 0.2631 0
M  V30 328 C -19.4236 -3.3951 1.6730 0
M  V30 329 C -20.7988 -2.7473 1.6108 0
M  V30 330 C -19.4557 -4.6436 0.8115 0
M  V30 331 C -19.3530 -4.5602 -0.5936 0
M  V30 332 C -19.5861 -5.6882 -1.3939 0
M  V30 333 C -19.9328 -6.8950 -0.8008 0
M  V30 334 C -20.0567 -6.9948 0.5893 0
M  V30 335 C -19.8307 -5.8744 1.3925 0
M  V30 336 H -20.0242 -5.9360 2.4550 0
M  V30 337 H -19.1478 -3.6274 -1.1026 0
M  V30 338 H -19.5246 -5.6146 -2.4633 0
M  V30 339 H -20.1764 -7.7485 -1.4182 0
M  V30 340 H -20.4291 -7.9042 1.0214 0
M  V30 341 C -21.7455 -3.0424 2.6030 0
M  V30 342 C -23.0525 -2.5392 2.5223 0
M  V30 343 C -23.4214 -1.7164 1.4696 0
M  V30 344 C -22.4845 -1.4313 0.4631 0
M  V30 345 C -21.1980 -1.9475 0.5200 0
M  V30 346 H -20.5164 -1.7497 -0.2990 0
M  V30 347 H -21.4907 -3.6741 3.4431 0
M  V30 348 H -23.7870 -2.8197 3.2706 0
M  V30 349 H -24.4452 -1.3543 1.4029 0
M  V30 350 H -22.7935 -0.8518 -0.3807 0
M  V30 351 H -19.2735 -3.7149 2.7235 0
M  V30 352 C -16.1673 -4.6585 -2.4320 0
M  V30 353 O -15.1925 -4.6128 -1.6421 0
M  V30 354 C -17.7254 -3.3079 -3.8887 0
M  V30 355 C -16.8568 -3.3808 -2.7885 0
M  V30 356 C -18.3722 -2.1053 -4.1906 0
M  V30 357 C -18.1679 -0.9676 -3.3961 0
M  V30 358 C -16.6405 -2.2245 -2.0018 0
M  V30 359 C -17.2991 -1.0062 -2.2927 0
M  V30 360 H -17.9240 -4.1386 -4.5141 0
M  V30 361 H -19.0552 -2.0601 -5.0251 0
M  V30 362 H -16.0148 -2.2852 -1.1362 0
M  V30 363 C -17.1322 0.2173 -1.4808 0
M  V30 364 O -16.2555 1.0548 -1.8022 0
M  V30 365 H -18.6975 -0.0711 -3.6499 0
M  V30 366 C -18.8460 -3.0736 5.3226 0
M  V30 367 O -17.7409 -2.5465 5.0957 0
M  V30 368 C -19.9935 -5.2803 5.8810 0
M  V30 369 C -18.9292 -4.5816 5.2945 0
M  V30 370 C -20.0692 -6.6648 5.7490 0
M  V30 371 C -19.1487 -7.3726 4.9731 0
M  V30 372 C -17.9408 -5.3246 4.5961 0
M  V30 373 C -18.0891 -6.7117 4.3443 0
M  V30 374 H -20.7510 -4.7547 6.4521 0
M  V30 375 H -20.8856 -7.1840 6.2436 0
M  V30 376 H -17.0856 -4.7880 4.1758 0
M  V30 377 C -17.1336 -7.3973 3.4231 0
M  V30 378 O -16.2573 -6.7092 2.8346 0
M  V30 379 H -19.3023 -8.4382 4.8820 0
M  V30 380 N -17.2077 -8.8073 3.1274 0
M  V30 381 C -16.0215 -8.9566 0.9722 0
M  V30 382 C -17.1221 -8.9189 0.1011 0
M  V30 383 C -14.7678 -8.4879 0.5071 0
M  V30 384 C -14.6476 -7.9169 -0.7632 0
M  V30 385 H -13.8851 -8.5647 1.1332 0
M  V30 386 C -15.7801 -7.8060 -1.5883 0
M  V30 387 H -13.6794 -7.5297 -1.0929 0
M  V30 388 C -16.9950 -8.3593 -1.1816 0
M  V30 389 H -18.0675 -9.3261 0.4109 0
M  V30 390 H -17.8432 -8.3548 -1.8564 0
M  V30 391 C -16.1585 -9.5157 2.3650 0
M  V30 392 H -16.4095 -10.6042 2.3035 0
M  V30 393 H -15.1844 -9.4433 2.9123 0
M  V30 394 C -15.6726 -7.1162 -2.9352 0
M  V30 395 N -16.5491 -5.9233 -3.0031 0
M  V30 396 H -15.9578 -7.8336 -3.7340 0
M  V30 397 H -14.6392 -6.8066 -3.1581 0
M  V30 398 H -17.4441 -6.0112 -3.5500 0
M  V30 399 H -17.8319 -9.4257 3.6813 0
M  V30 400 N -18.0177 0.4807 -0.3812 0
M  V30 401 C -18.4432 1.2010 1.9132 0
M  V30 402 C -19.8077 0.8978 2.0170 0
M  V30 403 C -17.6143 1.0336 3.0373 0
M  V30 404 C -18.1259 0.4311 4.1956 0
M  V30 405 H -16.5750 1.3373 2.9993 0
M  V30 406 C -19.4508 -0.0565 4.2310 0
M  V30 407 H -17.4672 0.3002 5.0404 0
M  V30 408 C -20.2976 0.2551 3.1583 0
M  V30 409 H -20.4802 1.0808 1.1715 0
M  V30 410 H -21.3367 -0.0422 3.2081 0
M  V30 411 C -17.8675 1.5965 0.5652 0
M  V30 412 H -18.3507 2.4990 0.1618 0
M  V30 413 H -16.7936 1.8490 0.6857 0
M  V30 414 C -19.9905 -0.7622 5.4556 0
M  V30 415 N -20.0408 -2.2388 5.3099 0
M  V30 416 H -21.0033 -0.3920 5.6842 0
M  V30 417 H -19.3514 -0.5104 6.3356 0
M  V30 418 H -20.9686 -2.6986 5.4264 0
M  V30 419 H -18.7686 -0.2151 -0.2060 0
M  V30 420 N -2.4440 5.7974 -0.4006 0
M  V30 421 C -3.4137 6.7166 -0.6565 0
M  V30 422 C -4.1146 6.6664 -1.8761 0
M  V30 423 C -3.8217 5.6610 -2.7841 0
M  V30 424 C -2.8286 4.7137 -2.4973 0
M  V30 425 C -2.1289 4.8221 -1.2911 0
M  V30 426 C -2.6260 3.5983 -3.3785 0
M  V30 427 C -2.5405 2.6121 -4.0625 0
M  V30 428 H -1.3807 4.0924 -1.0189 0
M  V30 429 H -3.6477 7.4904 0.0698 0
M  V30 430 H -4.8509 7.4106 -2.0890 0
M  V30 431 H -4.3786 5.6134 -3.7125 0
M  V30 432 N -2.4440 -5.2103 -0.4006 0
M  V30 433 C -2.5901 -6.4733 -0.8647 0
M  V30 434 C -2.8928 -6.6995 -2.2107 0
M  V30 435 C -3.0063 -5.6034 -3.0844 0
M  V30 436 C -2.8258 -4.3085 -2.5990 0
M  V30 437 C -2.5580 -4.1270 -1.2333 0
M  V30 438 C -2.9044 -3.1783 -3.4691 0
M  V30 439 C -2.9426 -2.2039 -4.1907 0
M  V30 440 H -2.4288 -3.1292 -0.8268 0
M  V30 441 H -2.4260 -7.3198 -0.1910 0
M  V30 442 H -2.9634 -7.7082 -2.6099 0
M  V30 443 H -3.2501 -5.7745 -4.1164 0
M  V30 444 C -2.4199 0.2338 -7.0152 0
M  V30 445 C -2.3482 1.4347 -6.2431 0
M  V30 446 C -2.5426 1.3957 -4.8475 0
M  V30 447 C -2.9244 0.2161 -4.2464 0
M  V30 448 C -2.9206 -0.9823 -4.9654 0
M  V30 449 C -2.6571 -0.9815 -6.3353 0
M  V30 450 H -2.6790 -1.8901 -6.9066 0
M  V30 451 H -2.1355 2.4098 -6.7425 0
M  V30 452 H -3.1155 0.1891 -3.1668 0
M  V30 453 C -2.5787 0.3825 -8.5295 0
M  V30 454 O -2.7987 1.5436 -8.9571 0
M  V30 455 N -3.1369 -0.7365 -9.2534 0
M  V30 456 C -2.5137 -1.2142 -10.4986 0
M  V30 457 C -3.5250 -1.9103 -11.3712 0
M  V30 458 H -2.0761 -0.3680 -11.0721 0
M  V30 459 H -1.7568 -1.9580 -10.2037 0
M  V30 460 O -4.7572 -1.7397 -11.1669 0
M  V30 461 N -3.1183 -2.8597 -12.3791 0
M  V30 462 H -3.8943 -1.3299 -8.8084 0
M  V30 463 C -2.4570 -2.4438 -13.6285 0
M  V30 464 H -3.2538 -3.8839 -12.2033 0
M  V30 465 H -2.8579 -1.4557 -13.9102 0
M  V30 466 H -1.3639 -2.3638 -13.4576 0
M  V30 467 C -2.7737 -3.4211 -14.8172 0
M  V30 468 C -2.7115 -2.7733 -16.1925 0
M  V30 469 C -1.9123 -4.6696 -14.8494 0
M  V30 470 C -0.5071 -4.5861 -14.7467 0
M  V30 471 C 0.2932 -5.7142 -14.9798 0
M  V30 472 C -0.2999 -6.9209 -15.3265 0
M  V30 473 C -1.6901 -7.0208 -15.4503 0
M  V30 474 C -2.4933 -5.9004 -15.2244 0
M  V30 475 H -3.5557 -5.9620 -15.4179 0
M  V30 476 H 0.0018 -3.6534 -14.5414 0
M  V30 477 H 1.3625 -5.6406 -14.9183 0
M  V30 478 H 0.3175 -7.7745 -15.5701 0
M  V30 479 H -2.1222 -7.9302 -15.8228 0
M  V30 480 C -3.7038 -3.0683 -17.1391 0
M  V30 481 C -3.6230 -2.5652 -18.4462 0
M  V30 482 C -2.5704 -1.7424 -18.8150 0
M  V30 483 C -1.5639 -1.4573 -17.8781 0
M  V30 484 C -1.6208 -1.9735 -16.5916 0
M  V30 485 H -0.8018 -1.7756 -15.9100 0
M  V30 486 H -4.5438 -3.7001 -16.8844 0
M  V30 487 H -4.3713 -2.8457 -19.1807 0
M  V30 488 H -2.5037 -1.3802 -19.8389 0
M  V30 489 H -0.7200 -0.8777 -18.1871 0
M  V30 490 H -3.8243 -3.7408 -14.6671 0
M  V30 491 C 1.3312 -4.6845 -11.5610 0
M  V30 492 O 0.5414 -4.6388 -10.5862 0
M  V30 493 C 2.7879 -3.3339 -13.1191 0
M  V30 494 C 1.6877 -3.4067 -12.2504 0
M  V30 495 C 3.0898 -2.1312 -13.7659 0
M  V30 496 C 2.2953 -0.9935 -13.5616 0
M  V30 497 C 0.9011 -2.2505 -12.0342 0
M  V30 498 C 1.1919 -1.0322 -12.6928 0
M  V30 499 H 3.4133 -4.1645 -13.3176 0
M  V30 500 H 3.9244 -2.0861 -14.4489 0
M  V30 501 H 0.0354 -2.3112 -11.4085 0
M  V30 502 C 0.3801 0.1914 -12.5259 0
M  V30 503 O 0.7015 1.0288 -11.6491 0
M  V30 504 H 2.5491 -0.0971 -14.0912 0
M  V30 505 C -6.4233 -3.0996 -14.2396 0
M  V30 506 O -6.1964 -2.5725 -13.1345 0
M  V30 507 C -6.9818 -5.3063 -15.3871 0
M  V30 508 C -6.3953 -4.6076 -14.3228 0
M  V30 509 C -6.8497 -6.6908 -15.4629 0
M  V30 510 C -6.0739 -7.3985 -14.5424 0
M  V30 511 C -5.6968 -5.3506 -13.3345 0
M  V30 512 C -5.4451 -6.7377 -13.4827 0
M  V30 513 H -7.5528 -4.7807 -16.1446 0
M  V30 514 H -7.3444 -7.2099 -16.2792 0
M  V30 515 H -5.2765 -4.8139 -12.4793 0
M  V30 516 C -4.5239 -7.4233 -12.5273 0
M  V30 517 O -3.9353 -6.7352 -11.6510 0
M  V30 518 H -5.9828 -8.4641 -14.6960 0
M  V30 519 N -4.2282 -8.8332 -12.6014 0
M  V30 520 C -2.0730 -8.9826 -11.4151 0
M  V30 521 C -1.2019 -8.9449 -12.5158 0
M  V30 522 C -1.6079 -8.5138 -10.1615 0
M  V30 523 C -0.3375 -7.9429 -10.0413 0
M  V30 524 H -2.2340 -8.5907 -9.2787 0
M  V30 525 C 0.4876 -7.8320 -11.1737 0
M  V30 526 H -0.0078 -7.5556 -9.0731 0
M  V30 527 C 0.0808 -8.3853 -12.3887 0
M  V30 528 H -1.5116 -9.3520 -13.4611 0
M  V30 529 H 0.7556 -8.3808 -13.2369 0
M  V30 530 C -3.4658 -9.5416 -11.5521 0
M  V30 531 H -3.4043 -10.6302 -11.8032 0
M  V30 532 H -4.0131 -9.4693 -10.5780 0
M  V30 533 C 1.8345 -7.1421 -11.0662 0
M  V30 534 N 1.9024 -5.9493 -11.9428 0
M  V30 535 H 2.6333 -7.8595 -11.3514 0
M  V30 536 H 2.0574 -6.8326 -10.0328 0
M  V30 537 H 2.4493 -6.0372 -12.8377 0
M  V30 538 H -4.7820 -9.4517 -13.2256 0
M  V30 539 N -0.7195 0.4547 -13.4114 0
M  V30 540 C -3.0139 1.1751 -13.8369 0
M  V30 541 C -3.1177 0.8718 -15.2014 0
M  V30 542 C -4.1380 1.0076 -13.0079 0
M  V30 543 C -5.2963 0.4051 -13.5196 0
M  V30 544 H -4.1000 1.3114 -11.9687 0
M  V30 545 C -5.3317 -0.0825 -14.8444 0
M  V30 546 H -6.1411 0.2743 -12.8608 0
M  V30 547 C -4.2590 0.2291 -15.6913 0
M  V30 548 H -2.2722 1.0548 -15.8739 0
M  V30 549 H -4.3088 -0.0682 -16.7304 0
M  V30 550 C -1.6659 1.5705 -13.2612 0
M  V30 551 H -1.2625 2.4731 -13.7443 0
M  V30 552 H -1.7865 1.8231 -12.1872 0
M  V30 553 C -6.5564 -0.7882 -15.3842 0
M  V30 554 N -6.4106 -2.2647 -15.4345 0
M  V30 555 H -6.7850 -0.4180 -16.3970 0
M  V30 556 H -7.4364 -0.5364 -14.7451 0
M  V30 557 H -6.5271 -2.7246 -16.3622 0
M  V30 558 H -0.8947 -0.2410 -14.1622 0
M  V30 END ATOM
M  V30 BEGIN BOND
M  V30 1 1 3 4
M  V30 2 2 4 5
M  V30 3 1 4 12
M  V30 4 1 5 6
M  V30 5 1 5 13
M  V30 6 2 6 7
M  V30 7 1 6 14
M  V30 8 1 7 8
M  V30 9 1 7 9
M  V30 10 2 8 3
M  V30 11 1 8 11
M  V30 12 3 9 10
M  V30 13 1 15 16
M  V30 14 2 16 17
M  V30 15 1 16 24
M  V30 16 1 17 18
M  V30 17 1 17 25
M  V30 18 2 18 19
M  V30 19 1 18 26
M  V30 20 1 19 20
M  V30 21 1 19 21
M  V30 22 2 20 15
M  V30 23 1 20 23
M  V30 24 3 21 22
M  V30 25 1 27 28
M  V30 26 2 28 29
M  V30 27 1 28 34
M  V30 28 1 29 30
M  V30 29 2 30 31
M  V30 30 1 30 35
M  V30 31 1 31 32
M  V30 32 2 32 27
M  V30 33 1 32 33
M  V30 34 1 10 29
M  V30 35 1 22 31
M  V30 36 2 36 37
M  V30 37 1 36 38
M  V30 38 1 38 39
M  V30 39 1 38 45
M  V30 40 1 39 40
M  V30 41 1 39 41
M  V30 42 1 39 42
M  V30 43 2 40 43
M  V30 44 1 40 44
M  V30 45 1 44 46
M  V30 46 1 44 47
M  V30 47 1 46 48
M  V30 48 1 46 49
M  V30 49 1 50 51
M  V30 50 1 50 52
M  V30 51 1 50 73
M  V30 52 1 51 63
M  V30 53 1 52 53
M  V30 54 2 53 54
M  V30 55 1 53 59
M  V30 56 1 54 55
M  V30 57 1 54 60
M  V30 58 2 55 56
M  V30 59 1 55 61
M  V30 60 1 56 57
M  V30 61 1 56 62
M  V30 62 2 57 52
M  V30 63 1 57 58
M  V30 64 2 63 64
M  V30 65 1 63 69
M  V30 66 1 64 65
M  V30 67 1 64 70
M  V30 68 2 65 66
M  V30 69 1 65 71
M  V30 70 1 66 67
M  V30 71 1 66 72
M  V30 72 2 67 51
M  V30 73 1 67 68
M  V30 74 1 46 50
M  V30 75 2 74 75
M  V30 76 1 74 77
M  V30 77 1 76 77
M  V30 78 2 76 78
M  V30 79 1 76 82
M  V30 80 2 77 80
M  V30 81 1 78 79
M  V30 82 1 78 83
M  V30 83 1 79 87
M  V30 84 1 80 81
M  V30 85 1 80 84
M  V30 86 2 81 79
M  V30 87 2 85 86
M  V30 88 1 85 81
M  V30 89 2 88 89
M  V30 90 1 88 91
M  V30 91 1 90 91
M  V30 92 2 90 92
M  V30 93 1 90 96
M  V30 94 2 91 94
M  V30 95 1 92 93
M  V30 96 1 92 97
M  V30 97 1 93 101
M  V30 98 1 94 95
M  V30 99 1 94 98
M  V30 100 2 95 93
M  V30 101 2 99 100
M  V30 102 1 99 95
M  V30 103 1 102 113
M  V30 104 1 102 121
M  V30 105 2 103 104
M  V30 106 1 103 105
M  V30 107 1 104 111
M  V30 108 2 105 106
M  V30 109 1 105 107
M  V30 110 1 106 108
M  V30 111 1 106 109
M  V30 112 2 108 110
M  V30 113 1 108 116
M  V30 114 1 110 104
M  V30 115 1 110 112
M  V30 116 1 113 103
M  V30 117 1 113 114
M  V30 118 1 113 115
M  V30 119 1 116 117
M  V30 120 1 116 118
M  V30 121 1 116 119
M  V30 122 1 117 120
M  V30 123 1 122 133
M  V30 124 1 122 141
M  V30 125 2 123 124
M  V30 126 1 123 125
M  V30 127 1 124 131
M  V30 128 2 125 126
M  V30 129 1 125 127
M  V30 130 1 126 128
M  V30 131 1 126 129
M  V30 132 2 128 130
M  V30 133 1 128 136
M  V30 134 1 130 124
M  V30 135 1 130 132
M  V30 136 1 133 123
M  V30 137 1 133 134
M  V30 138 1 133 135
M  V30 139 1 136 137
M  V30 140 1 136 138
M  V30 141 1 136 139
M  V30 142 1 137 140
M  V30 143 1 74 117
M  V30 144 1 99 102
M  V30 145 1 88 137
M  V30 146 1 85 122
M  V30 147 1 27 36
M  V30 148 1 142 143
M  V30 149 2 143 144
M  V30 150 1 143 151
M  V30 151 1 144 145
M  V30 152 1 144 152
M  V30 153 2 145 146
M  V30 154 1 145 153
M  V30 155 1 146 147
M  V30 156 1 146 148
M  V30 157 2 147 142
M  V30 158 1 147 150
M  V30 159 3 148 149
M  V30 160 1 154 155
M  V30 161 2 155 156
M  V30 162 1 155 163
M  V30 163 1 156 157
M  V30 164 1 156 164
M  V30 165 2 157 158
M  V30 166 1 157 165
M  V30 167 1 158 159
M  V30 168 1 158 160
M  V30 169 2 159 154
M  V30 170 1 159 162
M  V30 171 3 160 161
M  V30 172 1 166 167
M  V30 173 2 167 168
M  V30 174 1 167 173
M  V30 175 1 168 169
M  V30 176 2 169 170
M  V30 177 1 169 174
M  V30 178 1 170 171
M  V30 179 2 171 166
M  V30 180 1 171 172
M  V30 181 1 149 168
M  V30 182 1 161 170
M  V30 183 2 175 176
M  V30 184 1 175 177
M  V30 185 1 177 178
M  V30 186 1 177 184
M  V30 187 1 178 179
M  V30 188 1 178 180
M  V30 189 1 178 181
M  V30 190 2 179 182
M  V30 191 1 179 183
M  V30 192 1 183 185
M  V30 193 1 183 186
M  V30 194 1 185 187
M  V30 195 1 185 188
M  V30 196 1 189 190
M  V30 197 1 189 191
M  V30 198 1 189 212
M  V30 199 1 190 202
M  V30 200 1 191 192
M  V30 201 2 192 193
M  V30 202 1 192 198
M  V30 203 1 193 194
M  V30 204 1 193 199
M  V30 205 2 194 195
M  V30 206 1 194 200
M  V30 207 1 195 196
M  V30 208 1 195 201
M  V30 209 2 196 191
M  V30 210 1 196 197
M  V30 211 2 202 203
M  V30 212 1 202 208
M  V30 213 1 203 204
M  V30 214 1 203 209
M  V30 215 2 204 205
M  V30 216 1 204 210
M  V30 217 1 205 206
M  V30 218 1 205 211
M  V30 219 2 206 190
M  V30 220 1 206 207
M  V30 221 1 185 189
M  V30 222 2 213 214
M  V30 223 1 213 216
M  V30 224 1 215 216
M  V30 225 2 215 217
M  V30 226 1 215 221
M  V30 227 2 216 219
M  V30 228 1 217 218
M  V30 229 1 217 222
M  V30 230 1 218 226
M  V30 231 1 219 220
M  V30 232 1 219 223
M  V30 233 2 220 218
M  V30 234 2 224 225
M  V30 235 1 224 220
M  V30 236 2 227 228
M  V30 237 1 227 230
M  V30 238 1 229 230
M  V30 239 2 229 231
M  V30 240 1 229 235
M  V30 241 2 230 233
M  V30 242 1 231 232
M  V30 243 1 231 236
M  V30 244 1 232 240
M  V30 245 1 233 234
M  V30 246 1 233 237
M  V30 247 2 234 232
M  V30 248 2 238 239
M  V30 249 1 238 234
M  V30 250 1 241 252
M  V30 251 1 241 260
M  V30 252 2 242 243
M  V30 253 1 242 244
M  V30 254 1 243 250
M  V30 255 2 244 245
M  V30 256 1 244 246
M  V30 257 1 245 247
M  V30 258 1 245 248
M  V30 259 2 247 249
M  V30 260 1 247 255
M  V30 261 1 249 243
M  V30 262 1 249 251
M  V30 263 1 252 242
M  V30 264 1 252 253
M  V30 265 1 252 254
M  V30 266 1 255 256
M  V30 267 1 255 257
M  V30 268 1 255 258
M  V30 269 1 256 259
M  V30 270 1 261 272
M  V30 271 1 261 280
M  V30 272 2 262 263
M  V30 273 1 262 264
M  V30 274 1 263 270
M  V30 275 2 264 265
M  V30 276 1 264 266
M  V30 277 1 265 267
M  V30 278 1 265 268
M  V30 279 2 267 269
M  V30 280 1 267 275
M  V30 281 1 269 263
M  V30 282 1 269 271
M  V30 283 1 272 262
M  V30 284 1 272 273
M  V30 285 1 272 274
M  V30 286 1 275 276
M  V30 287 1 275 277
M  V30 288 1 275 278
M  V30 289 1 276 279
M  V30 290 1 213 256
M  V30 291 1 238 241
M  V30 292 1 227 276
M  V30 293 1 224 261
M  V30 294 1 166 175
M  V30 295 1 281 282
M  V30 296 2 282 283
M  V30 297 1 282 290
M  V30 298 1 283 284
M  V30 299 1 283 291
M  V30 300 2 284 285
M  V30 301 1 284 292
M  V30 302 1 285 286
M  V30 303 1 285 287
M  V30 304 2 286 281
M  V30 305 1 286 289
M  V30 306 3 287 288
M  V30 307 1 293 294
M  V30 308 2 294 295
M  V30 309 1 294 302
M  V30 310 1 295 296
M  V30 311 1 295 303
M  V30 312 2 296 297
M  V30 313 1 296 304
M  V30 314 1 297 298
M  V30 315 1 297 299
M  V30 316 2 298 293
M  V30 317 1 298 301
M  V30 318 3 299 300
M  V30 319 1 305 306
M  V30 320 2 306 307
M  V30 321 1 306 312
M  V30 322 1 307 308
M  V30 323 2 308 309
M  V30 324 1 308 313
M  V30 325 1 309 310
M  V30 326 2 310 305
M  V30 327 1 310 311
M  V30 328 1 288 307
M  V30 329 1 300 309
M  V30 330 2 314 315
M  V30 331 1 314 316
M  V30 332 1 316 317
M  V30 333 1 316 323
M  V30 334 1 317 318
M  V30 335 1 317 319
M  V30 336 1 317 320
M  V30 337 2 318 321
M  V30 338 1 318 322
M  V30 339 1 322 324
M  V30 340 1 322 325
M  V30 341 1 324 326
M  V30 342 1 324 327
M  V30 343 1 328 329
M  V30 344 1 328 330
M  V30 345 1 328 351
M  V30 346 1 329 341
M  V30 347 1 330 331
M  V30 348 2 331 332
M  V30 349 1 331 337
M  V30 350 1 332 333
M  V30 351 1 332 338
M  V30 352 2 333 334
M  V30 353 1 333 339
M  V30 354 1 334 335
M  V30 355 1 334 340
M  V30 356 2 335 330
M  V30 357 1 335 336
M  V30 358 2 341 342
M  V30 359 1 341 347
M  V30 360 1 342 343
M  V30 361 1 342 348
M  V30 362 2 343 344
M  V30 363 1 343 349
M  V30 364 1 344 345
M  V30 365 1 344 350
M  V30 366 2 345 329
M  V30 367 1 345 346
M  V30 368 1 324 328
M  V30 369 2 352 353
M  V30 370 1 352 355
M  V30 371 1 354 355
M  V30 372 2 354 356
M  V30 373 1 354 360
M  V30 374 2 355 358
M  V30 375 1 356 357
M  V30 376 1 356 361
M  V30 377 1 357 365
M  V30 378 1 358 359
M  V30 379 1 358 362
M  V30 380 2 359 357
M  V30 381 2 363 364
M  V30 382 1 363 359
M  V30 383 2 366 367
M  V30 384 1 366 369
M  V30 385 1 368 369
M  V30 386 2 368 370
M  V30 387 1 368 374
M  V30 388 2 369 372
M  V30 389 1 370 371
M  V30 390 1 370 375
M  V30 391 1 371 379
M  V30 392 1 372 373
M  V30 393 1 372 376
M  V30 394 2 373 371
M  V30 395 2 377 378
M  V30 396 1 377 373
M  V30 397 1 380 391
M  V30 398 1 380 399
M  V30 399 2 381 382
M  V30 400 1 381 383
M  V30 401 1 382 389
M  V30 402 2 383 384
M  V30 403 1 383 385
M  V30 404 1 384 386
M  V30 405 1 384 387
M  V30 406 2 386 388
M  V30 407 1 386 394
M  V30 408 1 388 382
M  V30 409 1 388 390
M  V30 410 1 391 381
M  V30 411 1 391 392
M  V30 412 1 391 393
M  V30 413 1 394 395
M  V30 414 1 394 396
M  V30 415 1 394 397
M  V30 416 1 395 398
M  V30 417 1 400 411
M  V30 418 1 400 419
M  V30 419 2 401 402
M  V30 420 1 401 403
M  V30 421 1 402 409
M  V30 422 2 403 404
M  V30 423 1 403 405
M  V30 424 1 404 406
M  V30 425 1 404 407
M  V30 426 2 406 408
M  V30 427 1 406 414
M  V30 428 1 408 402
M  V30 429 1 408 410
M  V30 430 1 411 401
M  V30 431 1 411 412
M  V30 432 1 411 413
M  V30 433 1 414 415
M  V30 434 1 414 416
M  V30 435 1 414 417
M  V30 436 1 415 418
M  V30 437 1 352 395
M  V30 438 1 377 380
M  V30 439 1 366 415
M  V30 440 1 363 400
M  V30 441 1 305 314
M  V30 442 1 420 421
M  V30 443 2 421 422
M  V30 444 1 421 429
M  V30 445 1 422 423
M  V30 446 1 422 430
M  V30 447 2 423 424
M  V30 448 1 423 431
M  V30 449 1 424 425
M  V30 450 1 424 426
M  V30 451 2 425 420
M  V30 452 1 425 428
M  V30 453 3 426 427
M  V30 454 1 432 433
M  V30 455 2 433 434
M  V30 456 1 433 441
M  V30 457 1 434 435
M  V30 458 1 434 442
M  V30 459 2 435 436
M  V30 460 1 435 443
M  V30 461 1 436 437
M  V30 462 1 436 438
M  V30 463 2 437 432
M  V30 464 1 437 440
M  V30 465 3 438 439
M  V30 466 1 444 445
M  V30 467 2 445 446
M  V30 468 1 445 451
M  V30 469 1 446 447
M  V30 470 2 447 448
M  V30 471 1 447 452
M  V30 472 1 448 449
M  V30 473 2 449 444
M  V30 474 1 449 450
M  V30 475 1 427 446
M  V30 476 1 439 448
M  V30 477 2 453 454
M  V30 478 1 453 455
M  V30 479 1 455 456
M  V30 480 1 455 462
M  V30 481 1 456 457
M  V30 482 1 456 458
M  V30 483 1 456 459
M  V30 484 2 457 460
M  V30 485 1 457 461
M  V30 486 1 461 463
M  V30 487 1 461 464
M  V30 488 1 463 465
M  V30 489 1 463 466
M  V30 490 1 467 468
M  V30 491 1 467 469
M  V30 492 1 467 490
M  V30 493 1 468 480
M  V30 494 1 469 470
M  V30 495 2 470 471
M  V30 496 1 470 476
M  V30 497 1 471 472
M  V30 498 1 471 477
M  V30 499 2 472 473
M  V30 500 1 472 478
M  V30 501 1 473 474
M  V30 502 1 473 479
M  V30 503 2 474 469
M  V30 504 1 474 475
M  V30 505 2 480 481
M  V30 506 1 480 486
M  V30 507 1 481 482
M  V30 508 1 481 487
M  V30 509 2 482 483
M  V30 510 1 482 488
M  V30 511 1 483 484
M  V30 512 1 483 489
M  V30 513 2 484 468
M  V30 514 1 484 485
M  V30 515 1 463 467
M  V30 516 2 491 492
M  V30 517 1 491 494
M  V30 518 1 493 494
M  V30 519 2 493 495
M  V30 520 1 493 499
M  V30 521 2 494 497
M  V30 522 1 495 496
M  V30 523 1 495 500
M  V30 524 1 496 504
M  V30 525 1 497 498
M  V30 526 1 497 501
M  V30 527 2 498 496
M  V30 528 2 502 503
M  V30 529 1 502 498
M  V30 530 2 505 506
M  V30 531 1 505 508
M  V30 532 1 507 508
M  V30 533 2 507 509
M  V30 534 1 507 513
M  V30 535 2 508 511
M  V30 536 1 509 510
M  V30 537 1 509 514
M  V30 538 1 510 518
M  V30 539 1 511 512
M  V30 540 1 511 515
M  V30 541 2 512 510
M  V30 542 2 516 517
M  V30 543 1 516 512
M  V30 544 1 519 530
M  V30 545 1 519 538
M  V30 546 2 520 521
M  V30 547 1 520 522
M  V30 548 1 521 528
M  V30 549 2 522 523
M  V30 550 1 522 524
M  V30 551 1 523 525
M  V30 552 1 523 526
M  V30 553 2 525 527
M  V30 554 1 525 533
M  V30 555 1 527 521
M  V30 556 1 527 529
M  V30 557 1 530 520
M  V30 558 1 530 531
M  V30 559 1 530 532
M  V30 560 1 533 534
M  V30 561 1 533 535
M  V30 562 1 533 536
M  V30 563 1 534 537
M  V30 564 1 539 550
M  V30 565 1 539 558
M  V30 566 2 540 541
M  V30 567 1 540 542
M  V30 568 1 541 548
M  V30 569 2 542 543
M  V30 570 1 542 544
M  V30 571 1 543 545
M  V30 572 1 543 546
M  V30 573 2 545 547
M  V30 574 1 545 553
M  V30 575 1 547 541
M  V30 576 1 547 549
M  V30 577 1 550 540
M  V30 578 1 550 551
M  V30 579 1 550 552
M  V30 580 1 553 554
M  V30 581 1 553 555
M  V30 582 1 553 556
M  V30 583 1 554 557
M  V30 584 1 491 534
M  V30 585 1 516 519
M  V30 586 1 505 554
M  V30 587 1 502 539
M  V30 588 1 444 453
M  V30 589 9 3 1
M  V30 590 9 142 1
M  V30 591 9 281 1
M  V30 592 9 420 1
M  V30 593 9 15 2
M  V30 594 9 154 2
M  V30 595 9 293 2
M  V30 596 9 432 2
M  V30 END BOND
M  V30 END CTAB
M  END

$$$$
