
     RDKit          3D

  0  0  0  0  0  0  0  0  0  0999 V3000
M  V30 BEGIN CTAB
M  V30 COUNTS 558 596 0 0 0
M  V30 BEGIN ATOM
M  V30 1 Pd -3.1993 6.0216 1.8808 0 CHG=2
M  V30 2 Pd -2.9388 -5.2949 1.8349 0 CHG=2
M  V30 3 N -1.0714 6.5090 1.5981 0
M  V30 4 C -0.5301 7.7517 1.5120 0
M  V30 5 C 0.8578 7.9088 1.4537 0
M  V30 6 C 1.6769 6.7749 1.4953 0
M  V30 7 C 1.0933 5.5027 1.5868 0
M  V30 8 C -0.3015 5.3909 1.6367 0
M  V30 9 C 1.9012 4.3139 1.6109 0
M  V30 10 C 2.5455 3.2928 1.6305 0
M  V30 11 H -0.7740 4.4175 1.7134 0
M  V30 12 H -1.1764 8.6192 1.4787 0
M  V30 13 H 1.2943 8.8922 1.3828 0
M  V30 14 H 2.7521 6.8831 1.4442 0
M  V30 15 N -1.0714 -4.9599 1.5981 0
M  V30 16 C -0.6996 -5.9589 0.7532 0
M  V30 17 C 0.5182 -5.8817 0.0713 0
M  V30 18 C 1.3424 -4.7684 0.2614 0
M  V30 19 C 0.9384 -3.7488 1.1356 0
M  V30 20 C -0.2905 -3.8636 1.7988 0
M  V30 21 C 1.7588 -2.5782 1.3156 0
M  V30 22 C 2.4282 -1.5877 1.4485 0
M  V30 23 H -0.6274 -3.0896 2.4752 0
M  V30 24 H -1.3473 -6.8149 0.6095 0
M  V30 25 H 0.8181 -6.6714 -0.6049 0
M  V30 26 H 2.2812 -4.6919 -0.2695 0
M  V30 27 C 5.3471 0.7718 1.5086 0
M  V30 28 C 4.6599 2.0075 1.5625 0
M  V30 29 C 3.2599 2.0431 1.6410 0
M  V30 30 C 2.5270 0.8473 1.6312 0
M  V30 31 C 3.1930 -0.3799 1.5694 0
M  V30 32 C 4.5986 -0.4204 1.5258 0
M  V30 33 H 5.0964 -1.3724 1.4308 0
M  V30 34 H 5.2047 2.9401 1.5209 0
M  V30 35 H 1.4399 0.8738 1.6470 0
M  V30 36 C 6.8120 0.7185 1.2759 0
M  V30 37 O 7.3719 1.6539 0.6347 0
M  V30 38 N 7.5769 -0.4340 1.6658 0
M  V30 39 C 8.6419 -0.9776 0.8152 0
M  V30 40 C 9.9468 -0.2938 1.1109 0
M  V30 41 H 8.7408 -2.0667 1.0244 0
M  V30 42 H 8.3861 -0.8476 -0.2588 0
M  V30 43 O 9.9874 0.9661 1.1533 0
M  V30 44 N 11.1580 -1.0491 1.2580 0
M  V30 45 H 7.3688 -0.8920 2.5889 0
M  V30 46 C 12.2880 -0.5253 2.0331 0
M  V30 47 H 11.1599 -2.0606 0.9760 0
M  V30 48 H 12.2232 0.5843 2.0891 0
M  V30 49 H 12.1945 -0.8967 3.0672 0
M  V30 50 C 13.6423 -0.9281 1.4114 0
M  V30 51 C 14.7472 0.0413 1.7752 0
M  V30 52 C 14.0744 -2.3453 1.7323 0
M  V30 53 C 14.0837 -2.8419 3.0525 0
M  V30 54 C 14.5965 -4.1132 3.3280 0
M  V30 55 C 15.1260 -4.8961 2.3000 0
M  V30 56 C 15.1467 -4.4078 0.9943 0
M  V30 57 C 14.6299 -3.1411 0.7119 0
M  V30 58 H 14.7121 -2.7559 -0.2952 0
M  V30 59 H 13.7259 -2.2489 3.8777 0
M  V30 60 H 14.5981 -4.4860 4.3434 0
M  V30 61 H 15.5367 -5.8738 2.5208 0
M  V30 62 H 15.5735 -5.0073 0.1992 0
M  V30 63 C 15.6545 0.4517 0.7813 0
M  V30 64 C 16.6843 1.3482 1.0847 0
M  V30 65 C 16.8313 1.8239 2.3865 0
M  V30 66 C 15.9585 1.3961 3.3915 0
M  V30 67 C 14.9259 0.5036 3.0918 0
M  V30 68 H 14.2675 0.1773 3.8861 0
M  V30 69 H 15.5677 0.0773 -0.2279 0
M  V30 70 H 17.3622 1.6723 0.3072 0
M  V30 71 H 17.6203 2.5260 2.6187 0
M  V30 72 H 16.0902 1.7510 4.4052 0
M  V30 73 H 13.4806 -0.8493 0.3163 0
M  V30 74 C 10.6792 -3.1976 5.2143 0
M  V30 75 O 9.4958 -3.0610 4.8083 0
M  V30 76 C 12.4402 -2.1910 6.7022 0
M  V30 77 C 11.3916 -2.0269 5.7788 0
M  V30 78 C 13.1418 -1.0788 7.1762 0
M  V30 79 C 12.8211 0.2030 6.7241 0
M  V30 80 C 11.0358 -0.7269 5.3750 0
M  V30 81 C 11.7822 0.3873 5.7974 0
M  V30 82 H 12.7089 -3.1715 7.0726 0
M  V30 83 H 13.9398 -1.2084 7.8968 0
M  V30 84 H 10.2314 -0.5880 4.6621 0
M  V30 85 C 11.4782 1.7293 5.2569 0
M  V30 86 O 10.2821 2.0382 5.0150 0
M  V30 87 H 13.3830 1.0499 7.1008 0
M  V30 88 C 13.2039 1.4284 -2.1698 0
M  V30 89 O 12.0088 1.8085 -2.3065 0
M  V30 90 C 14.7997 -0.2929 -3.0571 0
M  V30 91 C 13.5535 0.0295 -2.4959 0
M  V30 92 C 15.1184 -1.6205 -3.3531 0
M  V30 93 C 14.2099 -2.6425 -3.0703 0
M  V30 94 C 12.6326 -1.0014 -2.2473 0
M  V30 95 C 12.9663 -2.3448 -2.4793 0
M  V30 96 H 15.5201 0.4820 -3.2899 0
M  V30 97 H 16.0745 -1.8621 -3.7980 0
M  V30 98 H 11.6737 -0.7573 -1.7967 0
M  V30 99 C 12.0267 -3.4189 -2.0800 0
M  V30 100 O 10.7918 -3.1708 -2.0226 0
M  V30 101 H 14.4813 -3.6625 -3.3063 0
M  V30 102 N 12.5055 -4.7225 -1.7053 0
M  V30 103 C 11.3904 -5.7397 0.2079 0
M  V30 104 C 12.2770 -6.3875 1.0855 0
M  V30 105 C 10.3037 -5.0215 0.7300 0
M  V30 106 C 10.0846 -4.9863 2.1091 0
M  V30 107 H 9.6158 -4.5130 0.0740 0
M  V30 108 C 10.9463 -5.6597 2.9878 0
M  V30 109 H 9.2301 -4.4385 2.4896 0
M  V30 110 C 12.0552 -6.3448 2.4681 0
M  V30 111 H 13.1307 -6.9287 0.7021 0
M  V30 112 H 12.7447 -6.8511 3.1339 0
M  V30 113 C 11.6133 -5.8013 -1.2792 0
M  V30 114 H 12.0671 -6.7790 -1.5535 0
M  V30 115 H 10.6443 -5.7407 -1.8285 0
M  V30 116 C 10.6832 -5.6306 4.4721 0
M  V30 117 N 11.3341 -4.4707 5.0787 0
M  V30 118 H 11.0747 -6.5545 4.9500 0
M  V30 119 H 9.5942 -5.6091 4.6701 0
M  V30 120 H 12.3540 -4.5577 5.2906 0
M  V30 121 H 13.5357 -4.9063 -1.6723 0
M  V30 122 N 12.5289 2.6888 5.0362 0
M  V30 123 C 12.7255 3.8924 2.9302 0
M  V30 124 C 14.0466 4.1765 2.5458 0
M  V30 125 C 11.8004 3.4936 1.9598 0
M  V30 126 C 12.1770 3.4098 0.6143 0
M  V30 127 H 10.7793 3.2585 2.2404 0
M  V30 128 C 13.4840 3.7244 0.2216 0
M  V30 129 H 11.4356 3.1260 -0.1223 0
M  V30 130 C 14.4207 4.0982 1.1989 0
M  V30 131 H 14.7828 4.4731 3.2832 0
M  V30 132 H 15.4409 4.3442 0.9154 0
M  V30 133 C 12.3086 3.9755 4.3769 0
M  V30 134 H 12.9040 4.7553 4.9016 0
M  V30 135 H 11.2465 4.2912 4.4606 0
M  V30 136 C 13.8644 3.7018 -1.2398 0
M  V30 137 N 14.1939 2.3478 -1.6760 0
M  V30 138 H 14.7404 4.3598 -1.4170 0
M  V30 139 H 13.0382 4.1169 -1.8560 0
M  V30 140 H 15.1825 2.0343 -1.5593 0
M  V30 141 H 13.5220 2.4106 5.2099 0
M  V30 142 N -2.5912 6.0687 3.7825 0
M  V30 143 C -2.5050 7.3113 4.3238 0
M  V30 144 C -2.4467 7.4685 5.7117 0
M  V30 145 C -2.4883 6.3345 6.5308 0
M  V30 146 C -2.5798 5.0624 5.9472 0
M  V30 147 C -2.6297 4.9506 4.5524 0
M  V30 148 C -2.6040 3.8736 6.7551 0
M  V30 149 C -2.6235 2.8525 7.3994 0
M  V30 150 H -2.7064 3.9772 4.0799 0
M  V30 151 H -2.4717 8.1788 3.6775 0
M  V30 152 H -2.3758 8.4519 6.1482 0
M  V30 153 H -2.4372 6.4428 7.6060 0
M  V30 154 N -2.5912 -5.4003 3.7825 0
M  V30 155 C -1.7463 -6.3992 4.1543 0
M  V30 156 C -1.0644 -6.3220 5.3721 0
M  V30 157 C -1.2545 -5.2087 6.1963 0
M  V30 158 C -2.1286 -4.1891 5.7923 0
M  V30 159 C -2.7918 -4.3040 4.5634 0
M  V30 160 C -2.3087 -3.0185 6.6127 0
M  V30 161 C -2.4416 -2.0281 7.2821 0
M  V30 162 H -3.4683 -3.5299 4.2265 0
M  V30 163 H -1.6026 -7.2553 3.5066 0
M  V30 164 H -0.3881 -7.1117 5.6720 0
M  V30 165 H -0.7236 -5.1322 7.1351 0
M  V30 166 C -2.5016 0.3315 10.2010 0
M  V30 167 C -2.5556 1.5671 9.5138 0
M  V30 168 C -2.6340 1.6028 8.1138 0
M  V30 169 C -2.6243 0.4069 7.3810 0
M  V30 170 C -2.5624 -0.8203 8.0469 0
M  V30 171 C -2.5188 -0.8607 9.4525 0
M  V30 172 H -2.4238 -1.8127 9.9503 0
M  V30 173 H -2.5139 2.4998 10.0587 0
M  V30 174 H -2.6400 0.4335 6.2938 0
M  V30 175 C -2.2690 0.2782 11.6659 0
M  V30 176 O -1.6278 1.2136 12.2258 0
M  V30 177 N -2.6588 -0.8743 12.4308 0
M  V30 178 C -1.8082 -1.4179 13.4958 0
M  V30 179 C -2.1040 -0.7341 14.8007 0
M  V30 180 H -2.0175 -2.5070 13.5947 0
M  V30 181 H -0.7343 -1.2880 13.2400 0
M  V30 182 O -2.1464 0.5258 14.8413 0
M  V30 183 N -2.2510 -1.4894 16.0119 0
M  V30 184 H -3.5819 -1.3323 12.2227 0
M  V30 185 C -3.0262 -0.9656 17.1419 0
M  V30 186 H -1.9691 -2.5010 16.0138 0
M  V30 187 H -3.0822 0.1440 17.0771 0
M  V30 188 H -4.0603 -1.3370 17.0484 0
M  V30 189 C -2.4045 -1.3684 18.4962 0
M  V30 190 C -2.7683 -0.3991 19.6011 0
M  V30 191 C -2.7253 -2.7856 18.9283 0
M  V30 192 C -4.0455 -3.2822 18.9376 0
M  V30 193 C -4.3211 -4.5535 19.4504 0
M  V30 194 C -3.2930 -5.3365 19.9799 0
M  V30 195 C -1.9873 -4.8481 20.0006 0
M  V30 196 C -1.7049 -3.5814 19.4838 0
M  V30 197 H -0.6979 -3.1962 19.5660 0
M  V30 198 H -4.8708 -2.6892 18.5799 0
M  V30 199 H -5.3365 -4.9263 19.4520 0
M  V30 200 H -3.5138 -6.3141 20.3906 0
M  V30 201 H -1.1922 -5.4476 20.4274 0
M  V30 202 C -1.7743 0.0114 20.5084 0
M  V30 203 C -2.0777 0.9078 21.5382 0
M  V30 204 C -3.3795 1.3835 21.6852 0
M  V30 205 C -4.3845 0.9557 20.8124 0
M  V30 206 C -4.0849 0.0633 19.7798 0
M  V30 207 H -4.8792 -0.2630 19.1214 0
M  V30 208 H -0.7652 -0.3630 20.4216 0
M  V30 209 H -1.3002 1.2319 22.2161 0
M  V30 210 H -3.6118 2.0856 22.4742 0
M  V30 211 H -5.3983 1.3107 20.9441 0
M  V30 212 H -1.3093 -1.2896 18.3345 0
M  V30 213 C -6.2073 -3.6380 15.5331 0
M  V30 214 O -5.8014 -3.5013 14.3497 0
M  V30 215 C -7.6952 -2.6313 17.2941 0
M  V30 216 C -6.7718 -2.4673 16.2455 0
M  V30 217 C -8.1693 -1.5191 17.9957 0
M  V30 218 C -7.7171 -0.2374 17.6750 0
M  V30 219 C -6.3681 -1.1673 15.8897 0
M  V30 220 C -6.7904 -0.0530 16.6361 0
M  V30 221 H -8.0657 -3.6118 17.5628 0
M  V30 222 H -8.8898 -1.6487 18.7937 0
M  V30 223 H -5.6552 -1.0283 15.0854 0
M  V30 224 C -6.2500 1.2890 16.3322 0
M  V30 225 O -6.0080 1.5979 15.1360 0
M  V30 226 H -8.0939 0.6096 18.2369 0
M  V30 227 C 1.1768 0.9881 18.0578 0
M  V30 228 O 1.3134 1.3682 16.8627 0
M  V30 229 C 2.0640 -0.7332 19.6536 0
M  V30 230 C 1.5028 -0.4108 18.4074 0
M  V30 231 C 2.3600 -2.0609 19.9723 0
M  V30 232 C 2.0773 -3.0828 19.0638 0
M  V30 233 C 1.2543 -1.4417 17.4865 0
M  V30 234 C 1.4862 -2.7852 17.8202 0
M  V30 235 H 2.2968 0.0417 20.3740 0
M  V30 236 H 2.8050 -2.3024 20.9284 0
M  V30 237 H 0.8036 -1.1977 16.5276 0
M  V30 238 C 1.0869 -3.8593 16.8806 0
M  V30 239 O 1.0296 -3.6112 15.6457 0
M  V30 240 H 2.3132 -4.1028 19.3352 0
M  V30 241 N 0.7122 -5.1628 17.3594 0
M  V30 242 C -1.2010 -6.1801 16.2443 0
M  V30 243 C -2.0786 -6.8278 17.1309 0
M  V30 244 C -1.7231 -5.4618 15.1576 0
M  V30 245 C -3.1022 -5.4266 14.9385 0
M  V30 246 H -1.0670 -4.9533 14.4697 0
M  V30 247 C -3.9809 -6.1000 15.8002 0
M  V30 248 H -3.4826 -4.8788 14.0840 0
M  V30 249 C -3.4611 -6.7851 16.9092 0
M  V30 250 H -1.6951 -7.3690 17.9846 0
M  V30 251 H -4.1270 -7.2915 17.5986 0
M  V30 252 C 0.2862 -6.2416 16.4672 0
M  V30 253 H 0.5605 -7.2193 16.9210 0
M  V30 254 H 0.8355 -6.1811 15.4982 0
M  V30 255 C -5.4652 -6.0709 15.5371 0
M  V30 256 N -6.0717 -4.9110 16.1880 0
M  V30 257 H -5.9430 -6.9948 15.9286 0
M  V30 258 H -5.6632 -6.0494 14.4481 0
M  V30 259 H -6.2837 -4.9980 17.2079 0
M  V30 260 H 0.6793 -5.3467 18.3896 0
M  V30 261 N -6.0292 2.2485 17.3828 0
M  V30 262 C -3.9233 3.4520 17.5794 0
M  V30 263 C -3.5388 3.7362 18.9005 0
M  V30 264 C -2.9528 3.0533 16.6543 0
M  V30 265 C -1.6074 2.9695 17.0309 0
M  V30 266 H -3.2334 2.8182 15.6332 0
M  V30 267 C -1.2146 3.2840 18.3379 0
M  V30 268 H -0.8708 2.6857 16.2895 0
M  V30 269 C -2.1919 3.6579 19.2746 0
M  V30 270 H -4.2762 4.0327 19.6367 0
M  V30 271 H -1.9085 3.9039 20.2948 0
M  V30 272 C -5.3700 3.5352 17.1625 0
M  V30 273 H -5.8947 4.3150 17.7579 0
M  V30 274 H -5.4536 3.8508 16.1004 0
M  V30 275 C 0.2468 3.2614 18.7183 0
M  V30 276 N 0.6830 1.9075 19.0478 0
M  V30 277 H 0.4240 3.9195 19.5943 0
M  V30 278 H 0.8629 3.6766 17.8921 0
M  V30 279 H 0.5663 1.5940 20.0364 0
M  V30 280 H -6.2029 1.9703 18.3759 0
M  V30 281 N -4.9023 6.0969 1.5965 0
M  V30 282 C -5.4436 7.3396 1.6827 0
M  V30 283 C -6.8315 7.4967 1.7410 0
M  V30 284 C -7.6505 6.3628 1.6994 0
M  V30 285 C -7.0670 5.0906 1.6079 0
M  V30 286 C -5.6722 4.9788 1.5580 0
M  V30 287 C -7.8749 3.9018 1.5838 0
M  V30 288 C -8.5192 2.8807 1.5642 0
M  V30 289 H -5.1997 4.0054 1.4813 0
M  V30 290 H -4.7972 8.2071 1.7160 0
M  V30 291 H -7.2680 8.4801 1.8119 0
M  V30 292 H -8.7258 6.4710 1.7505 0
M  V30 293 N -4.9023 -5.3720 1.5965 0
M  V30 294 C -5.2740 -6.3710 2.4414 0
M  V30 295 C -6.4918 -6.2938 3.1233 0
M  V30 296 C -7.3160 -5.1805 2.9333 0
M  V30 297 C -6.9121 -4.1609 2.0591 0
M  V30 298 C -5.6832 -4.2757 1.3959 0
M  V30 299 C -7.7325 -2.9903 1.8791 0
M  V30 300 C -8.4019 -1.9998 1.7461 0
M  V30 301 H -5.3463 -3.5017 0.7194 0
M  V30 302 H -4.6264 -7.2270 2.5851 0
M  V30 303 H -6.7918 -7.0835 3.7996 0
M  V30 304 H -8.2548 -5.1040 3.4642 0
M  V30 305 C -11.3207 0.3597 1.6861 0
M  V30 306 C -10.6336 1.5954 1.6321 0
M  V30 307 C -9.2336 1.6310 1.5537 0
M  V30 308 C -8.5007 0.4352 1.5634 0
M  V30 309 C -9.1667 -0.7920 1.6253 0
M  V30 310 C -10.5723 -0.8325 1.6689 0
M  V30 311 H -11.0701 -1.7845 1.7639 0
M  V30 312 H -11.1784 2.5280 1.6738 0
M  V30 313 H -7.4136 0.4617 1.5477 0
M  V30 314 C -12.7857 0.3064 1.9187 0
M  V30 315 O -13.3456 1.2418 2.5599 0
M  V30 316 N -13.5506 -0.8461 1.5289 0
M  V30 317 C -14.6155 -1.3897 2.3795 0
M  V30 318 C -15.9205 -0.7059 2.0837 0
M  V30 319 H -14.7145 -2.4788 2.1702 0
M  V30 320 H -14.3597 -1.2597 3.4534 0
M  V30 321 O -15.9611 0.5540 2.0413 0
M  V30 322 N -17.1317 -1.4612 1.9367 0
M  V30 323 H -13.3425 -1.3041 0.6058 0
M  V30 324 C -18.2617 -0.9374 1.1615 0
M  V30 325 H -17.1335 -2.4727 2.2186 0
M  V30 326 H -18.1969 0.1722 1.1055 0
M  V30 327 H -18.1681 -1.3088 0.1275 0
M  V30 328 C -19.6159 -1.3402 1.7833 0
M  V30 329 C -20.7208 -0.3708 1.4194 0
M  V30 330 C -20.0481 -2.7574 1.4624 0
M  V30 331 C -20.0574 -3.2540 0.1422 0
M  V30 332 C -20.5702 -4.5253 -0.1334 0
M  V30 333 C -21.0996 -5.3082 0.8947 0
M  V30 334 C -21.1204 -4.8199 2.2004 0
M  V30 335 C -20.6035 -3.5532 2.4828 0
M  V30 336 H -20.6858 -3.1680 3.4899 0
M  V30 337 H -19.6996 -2.6609 -0.6831 0
M  V30 338 H -20.5718 -4.8981 -1.1487 0
M  V30 339 H -21.5103 -6.2859 0.6739 0
M  V30 340 H -21.5471 -5.4194 2.9955 0
M  V30 341 C -21.6282 0.0397 2.4134 0
M  V30 342 C -22.6579 0.9361 2.1100 0
M  V30 343 C -22.8050 1.4118 0.8082 0
M  V30 344 C -21.9322 0.9840 -0.1968 0
M  V30 345 C -20.8996 0.0915 0.1028 0
M  V30 346 H -20.2412 -0.2348 -0.6914 0
M  V30 347 H -21.5414 -0.3348 3.4225 0
M  V30 348 H -23.3359 1.2602 2.8875 0
M  V30 349 H -23.5939 2.1139 0.5759 0
M  V30 350 H -22.0639 1.3389 -1.2105 0
M  V30 351 H -19.4543 -1.2614 2.8784 0
M  V30 352 C -16.6528 -3.6097 -2.0196 0
M  V30 353 O -15.4694 -3.4730 -1.6137 0
M  V30 354 C -18.4138 -2.6030 -3.5075 0
M  V30 355 C -17.3652 -2.4390 -2.5841 0
M  V30 356 C -19.1155 -1.4909 -3.9816 0
M  V30 357 C -18.7948 -0.2091 -3.5294 0
M  V30 358 C -17.0094 -1.1390 -2.1804 0
M  V30 359 C -17.7558 -0.0248 -2.6027 0
M  V30 360 H -18.6826 -3.5836 -3.8780 0
M  V30 361 H -19.9135 -1.6205 -4.7021 0
M  V30 362 H -16.2051 -1.0001 -1.4675 0
M  V30 363 C -17.4519 1.3172 -2.0623 0
M  V30 364 O -16.2557 1.6261 -1.8203 0
M  V30 365 H -19.3567 0.6378 -3.9062 0
M  V30 366 C -19.1776 1.0163 5.3645 0
M  V30 367 O -17.9825 1.3964 5.5011 0
M  V30 368 C -20.7734 -0.7050 6.2517 0
M  V30 369 C -19.5271 -0.3826 5.6905 0
M  V30 370 C -21.0921 -2.0326 6.5478 0
M  V30 371 C -20.1836 -3.0546 6.2650 0
M  V30 372 C -18.6063 -1.4135 5.4420 0
M  V30 373 C -18.9399 -2.7569 5.6740 0
M  V30 374 H -21.4938 0.0699 6.4845 0
M  V30 375 H -22.0482 -2.2742 6.9927 0
M  V30 376 H -17.6474 -1.1694 4.9914 0
M  V30 377 C -18.0004 -3.8310 5.2746 0
M  V30 378 O -16.7655 -3.5829 5.2173 0
M  V30 379 H -20.4550 -4.0746 6.5009 0
M  V30 380 N -18.4792 -5.1346 4.8999 0
M  V30 381 C -17.3641 -6.1518 2.9868 0
M  V30 382 C -18.2507 -6.7996 2.1091 0
M  V30 383 C -16.2774 -5.4336 2.4646 0
M  V30 384 C -16.0583 -5.3984 1.0856 0
M  V30 385 H -15.5895 -4.9251 3.1207 0
M  V30 386 C -16.9200 -6.0718 0.2068 0
M  V30 387 H -15.2037 -4.8506 0.7051 0
M  V30 388 C -18.0289 -6.7568 0.7266 0
M  V30 389 H -19.1043 -7.3408 2.4926 0
M  V30 390 H -18.7184 -7.2632 0.0608 0
M  V30 391 C -17.5870 -6.2134 4.4739 0
M  V30 392 H -18.0408 -7.1911 4.7482 0
M  V30 393 H -16.6179 -6.1528 5.0232 0
M  V30 394 C -16.6568 -6.0427 -1.2774 0
M  V30 395 N -17.3078 -4.8828 -1.8840 0
M  V30 396 H -17.0484 -6.9666 -1.7553 0
M  V30 397 H -15.5679 -6.0212 -1.4755 0
M  V30 398 H -18.3277 -4.9698 -2.0960 0
M  V30 399 H -19.5094 -5.3184 4.8670 0
M  V30 400 N -18.5026 2.2767 -1.8415 0
M  V30 401 C -18.6992 3.4803 0.2645 0
M  V30 402 C -20.0203 3.7644 0.6489 0
M  V30 403 C -17.7740 3.0815 1.2349 0
M  V30 404 C -18.1507 2.9977 2.5804 0
M  V30 405 H -16.7530 2.8465 0.9543 0
M  V30 406 C -19.4577 3.3123 2.9731 0
M  V30 407 H -17.4093 2.7139 3.3169 0
M  V30 408 C -20.3944 3.6861 1.9958 0
M  V30 409 H -20.7565 4.0610 -0.0885 0
M  V30 410 H -21.4146 3.9321 2.2792 0
M  V30 411 C -18.2823 3.5634 -1.1822 0
M  V30 412 H -18.8777 4.3432 -1.7069 0
M  V30 413 H -17.2202 3.8791 -1.2659 0
M  V30 414 C -19.8381 3.2897 4.4345 0
M  V30 415 N -20.1676 1.9357 4.8707 0
M  V30 416 H -20.7141 3.9478 4.6117 0
M  V30 417 H -19.0119 3.7048 5.0506 0
M  V30 418 H -21.1562 1.6222 4.7540 0
M  V30 419 H -19.4957 1.9985 -2.0152 0
M  V30 420 N -2.6523 6.0486 -0.0154 0
M  V30 421 C -2.7385 7.2913 -0.5567 0
M  V30 422 C -2.7968 7.4484 -1.9446 0
M  V30 423 C -2.7552 6.3145 -2.7636 0
M  V30 424 C -2.6637 5.0423 -2.1800 0
M  V30 425 C -2.6138 4.9305 -0.7853 0
M  V30 426 C -2.6396 3.8535 -2.9879 0
M  V30 427 C -2.6200 2.8324 -3.6322 0
M  V30 428 H -2.5371 3.9571 -0.3127 0
M  V30 429 H -2.7718 8.1587 0.0897 0
M  V30 430 H -2.8677 8.4318 -2.3811 0
M  V30 431 H -2.8063 6.4227 -3.8389 0
M  V30 432 N -2.6523 -5.4203 -0.0154 0
M  V30 433 C -3.4972 -6.4193 -0.3871 0
M  V30 434 C -4.1791 -6.3421 -1.6049 0
M  V30 435 C -3.9890 -5.2288 -2.4291 0
M  V30 436 C -3.1149 -4.2092 -2.0252 0
M  V30 437 C -2.4517 -4.3240 -0.7963 0
M  V30 438 C -2.9348 -3.0386 -2.8456 0
M  V30 439 C -2.8019 -2.0481 -3.5149 0
M  V30 440 H -1.7752 -3.5500 -0.4594 0
M  V30 441 H -3.6409 -7.2753 0.2605 0
M  V30 442 H -4.8554 -7.1318 -1.9048 0
M  V30 443 H -4.5199 -5.1523 -3.3679 0
M  V30 444 C -2.7419 0.3114 -6.4338 0
M  V30 445 C -2.6879 1.5471 -5.7466 0
M  V30 446 C -2.6095 1.5827 -4.3467 0
M  V30 447 C -2.6192 0.3868 -3.6138 0
M  V30 448 C -2.6811 -0.8403 -4.2797 0
M  V30 449 C -2.7247 -0.8808 -5.6853 0
M  V30 450 H -2.8197 -1.8328 -6.1832 0
M  V30 451 H -2.7296 2.4797 -6.2915 0
M  V30 452 H -2.6035 0.4134 -2.5266 0
M  V30 453 C -2.9745 0.2581 -7.8987 0
M  V30 454 O -3.6157 1.1935 -8.4587 0
M  V30 455 N -2.5847 -0.8944 -8.6637 0
M  V30 456 C -3.4353 -1.4380 -9.7286 0
M  V30 457 C -3.1395 -0.7542 -11.0335 0
M  V30 458 H -3.2260 -2.5271 -9.8275 0
M  V30 459 H -4.5092 -1.3080 -9.4728 0
M  V30 460 O -3.0971 0.5057 -11.0741 0
M  V30 461 N -2.9925 -1.5095 -12.2447 0
M  V30 462 H -1.6616 -1.3524 -8.4556 0
M  V30 463 C -2.2173 -0.9857 -13.3748 0
M  V30 464 H -3.2744 -2.5210 -12.2466 0
M  V30 465 H -2.1613 0.1239 -13.3100 0
M  V30 466 H -1.1833 -1.3571 -13.2812 0
M  V30 467 C -2.8391 -1.3885 -14.7290 0
M  V30 468 C -2.4752 -0.4192 -15.8339 0
M  V30 469 C -2.5182 -2.8057 -15.1611 0
M  V30 470 C -1.1980 -3.3023 -15.1704 0
M  V30 471 C -0.9224 -4.5736 -15.6833 0
M  V30 472 C -1.9505 -5.3565 -16.2127 0
M  V30 473 C -3.2562 -4.8682 -16.2335 0
M  V30 474 C -3.5386 -3.6015 -15.7166 0
M  V30 475 H -4.5456 -3.2163 -15.7988 0
M  V30 476 H -0.3727 -2.7093 -14.8127 0
M  V30 477 H 0.0930 -4.9464 -15.6848 0
M  V30 478 H -1.7297 -6.3342 -16.6234 0
M  V30 479 H -4.0513 -5.4677 -16.6602 0
M  V30 480 C -3.4692 -0.0087 -16.7412 0
M  V30 481 C -3.1658 0.8877 -17.7710 0
M  V30 482 C -1.8640 1.3634 -17.9180 0
M  V30 483 C -0.8590 0.9357 -17.0452 0
M  V30 484 C -1.1586 0.0432 -16.0126 0
M  V30 485 H -0.3643 -0.2831 -15.3542 0
M  V30 486 H -4.4783 -0.3831 -16.6545 0
M  V30 487 H -3.9433 1.2119 -18.4489 0
M  V30 488 H -1.6317 2.0656 -18.7070 0
M  V30 489 H 0.1547 1.2906 -17.1769 0
M  V30 490 H -3.9342 -1.3097 -14.5674 0
M  V30 491 C 0.9638 -3.6580 -11.7659 0
M  V30 492 O 0.5579 -3.5214 -10.5825 0
M  V30 493 C 2.4517 -2.6514 -13.5269 0
M  V30 494 C 1.5283 -2.4873 -12.4783 0
M  V30 495 C 2.9258 -1.5392 -14.2285 0
M  V30 496 C 2.4736 -0.2574 -13.9078 0
M  V30 497 C 1.1246 -1.1874 -12.1225 0
M  V30 498 C 1.5469 -0.0731 -12.8689 0
M  V30 499 H 2.8222 -3.6319 -13.7957 0
M  V30 500 H 3.6463 -1.6688 -15.0265 0
M  V30 501 H 0.4117 -1.0484 -11.3182 0
M  V30 502 C 1.0065 1.2689 -12.5650 0
M  V30 503 O 0.7645 1.5778 -11.3688 0
M  V30 504 H 2.8504 0.5895 -14.4698 0
M  V30 505 C -6.4203 0.9680 -14.2907 0
M  V30 506 O -6.5569 1.3481 -13.0956 0
M  V30 507 C -7.3075 -0.7533 -15.8865 0
M  V30 508 C -6.7463 -0.4309 -14.6402 0
M  V30 509 C -7.6035 -2.0810 -16.2052 0
M  V30 510 C -7.3208 -3.1029 -15.2966 0
M  V30 511 C -6.4978 -1.4618 -13.7193 0
M  V30 512 C -6.7298 -2.8052 -14.0530 0
M  V30 513 H -7.5403 0.0216 -16.6068 0
M  V30 514 H -8.0485 -2.3225 -17.1613 0
M  V30 515 H -6.0471 -1.2178 -12.7605 0
M  V30 516 C -6.3304 -3.8793 -13.1135 0
M  V30 517 O -6.2731 -3.6313 -11.8786 0
M  V30 518 H -7.5567 -4.1229 -15.5680 0
M  V30 519 N -5.9557 -5.1829 -13.5923 0
M  V30 520 C -4.0426 -6.2002 -12.4771 0
M  V30 521 C -3.1649 -6.8479 -13.3638 0
M  V30 522 C -3.5204 -5.4819 -11.3904 0
M  V30 523 C -2.1414 -5.4467 -11.1713 0
M  V30 524 H -4.1765 -4.9734 -10.7026 0
M  V30 525 C -1.2626 -6.1201 -12.0331 0
M  V30 526 H -1.7609 -4.8989 -10.3168 0
M  V30 527 C -1.7824 -6.8052 -13.1420 0
M  V30 528 H -3.5484 -7.3891 -14.2174 0
M  V30 529 H -1.1165 -7.3115 -13.8314 0
M  V30 530 C -5.5297 -6.2617 -12.7000 0
M  V30 531 H -5.8040 -7.2394 -13.1538 0
M  V30 532 H -6.0790 -6.2011 -11.7310 0
M  V30 533 C 0.2216 -6.0910 -11.7699 0
M  V30 534 N 0.8282 -4.9311 -12.4209 0
M  V30 535 H 0.6995 -7.0149 -12.1615 0
M  V30 536 H 0.4197 -6.0695 -10.6810 0
M  V30 537 H 1.0402 -5.0181 -13.4408 0
M  V30 538 H -5.9228 -5.3668 -14.6224 0
M  V30 539 N 0.7857 2.2284 -13.6156 0
M  V30 540 C -1.3202 3.4320 -13.8123 0
M  V30 541 C -1.7047 3.7161 -15.1333 0
M  V30 542 C -2.2907 3.0332 -12.8871 0
M  V30 543 C -3.6361 2.9494 -13.2638 0
M  V30 544 H -2.0101 2.7981 -11.8660 0
M  V30 545 C -4.0289 3.2639 -14.5708 0
M  V30 546 H -4.3727 2.6656 -12.5224 0
M  V30 547 C -3.0516 3.6378 -15.5075 0
M  V30 548 H -0.9673 4.0126 -15.8695 0
M  V30 549 H -3.3350 3.8838 -16.5277 0
M  V30 550 C 0.1265 3.5151 -13.3954 0
M  V30 551 H 0.6512 4.2949 -13.9908 0
M  V30 552 H 0.2101 3.8308 -12.3333 0
M  V30 553 C -5.4903 3.2414 -14.9511 0
M  V30 554 N -5.9265 1.8874 -15.2807 0
M  V30 555 H -5.6675 3.8994 -15.8271 0
M  V30 556 H -6.1064 3.6565 -14.1250 0
M  V30 557 H -5.8098 1.5739 -16.2693 0
M  V30 558 H 0.9594 1.9502 -14.6087 0
M  V30 END ATOM
M  V30 BEGIN BOND
M  V30 1 1 3 4
M  V30 2 2 4 5
M  V30 3 1 4 12
M  V30 4 1 5 6
M  V30 5 1 5 13
M  V30 6 2 6 7
M  V30 7 1 6 14
M  V30 8 1 7 8
M  V30 9 1 7 9
M  V30 10 2 8 3
M  V30 11 1 8 11
M  V30 12 3 9 10
M  V30 13 1 15 16
M  V30 14 2 16 17
M  V30 15 1 16 24
M  V30 16 1 17 18
M  V30 17 1 17 25
M  V30 18 2 18 19
M  V30 19 1 18 26
M  V30 20 1 19 20
M  V30 21 1 19 21
M  V30 22 2 20 15
M  V30 23 1 20 23
M  V30 24 3 21 22
M  V30 25 1 27 28
M  V30 26 2 28 29
M  V30 27 1 28 34
M  V30 28 1 29 30
M  V30 29 2 30 31
M  V30 30 1 30 35
M  V30 31 1 31 32
M  V30 32 2 32 27
M  V30 33 1 32 33
M  V30 34 1 10 29
M  V30 35 1 22 31
M  V30 36 2 36 37
M  V30 37 1 36 38
M  V30 38 1 38 39
M  V30 39 1 38 45
M  V30 40 1 39 40
M  V30 41 1 39 41
M  V30 42 1 39 42
M  V30 43 2 40 43
M  V30 44 1 40 44
M  V30 45 1 44 46
M  V30 46 1 44 47
M  V30 47 1 46 48
M  V30 48 1 46 49
M  V30 49 1 50 51
M  V30 50 1 50 52
M  V30 51 1 50 73
M  V30 52 1 51 63
M  V30 53 1 52 53
M  V30 54 2 53 54
M  V30 55 1 53 59
M  V30 56 1 54 55
M  V30 57 1 54 60
M  V30 58 2 55 56
M  V30 59 1 55 61
M  V30 60 1 56 57
M  V30 61 1 56 62
M  V30 62 2 57 52
M  V30 63 1 57 58
M  V30 64 2 63 64
M  V30 65 1 63 69
M  V30 66 1 64 65
M  V30 67 1 64 70
M  V30 68 2 65 66
M  V30 69 1 65 71
M  V30 70 1 66 67
M  V30 71 1 66 72
M  V30 72 2 67 51
M  V30 73 1 67 68
M  V30 74 1 46 50
M  V30 75 2 74 75
M  V30 76 1 74 77
M  V30 77 1 76 77
M  V30 78 2 76 78
M  V30 79 1 76 82
M  V30 80 2 77 80
M  V30 81 1 78 79
M  V30 82 1 78 83
M  V30 83 1 79 87
M  V30 84 1 80 81
M  V30 85 1 80 84
M  V30 86 2 81 79
M  V30 87 2 85 86
M  V30 88 1 85 81
M  V30 89 2 88 89
M  V30 90 1 88 91
M  V30 91 1 90 91
M  V30 92 2 90 92
M  V30 93 1 90 96
M  V30 94 2 91 94
M  V30 95 1 92 93
M  V30 96 1 92 97
M  V30 97 1 93 101
M  V30 98 1 94 95
M  V30 99 1 94 98
M  V30 100 2 95 93
M  V30 101 2 99 100
M  V30 102 1 99 95
M  V30 103 1 102 113
M  V30 104 1 102 121
M  V30 105 2 103 104
M  V30 106 1 103 105
M  V30 107 1 104 111
M  V30 108 2 105 106
M  V30 109 1 105 107
M  V30 110 1 106 108
M  V30 111 1 106 109
M  V30 112 2 108 110
M  V30 113 1 108 116
M  V30 114 1 110 104
M  V30 115 1 110 112
M  V30 116 1 113 103
M  V30 117 1 113 114
M  V30 118 1 113 115
M  V30 119 1 116 117
M  V30 120 1 116 118
M  V30 121 1 116 119
M  V30 122 1 117 120
M  V30 123 1 122 133
M  V30 124 1 122 141
M  V30 125 2 123 124
M  V30 126 1 123 125
M  V30 127 1 124 131
M  V30 128 2 125 126
M  V30 129 1 125 127
M  V30 130 1 126 128
M  V30 131 1 126 129
M  V30 132 2 128 130
M  V30 133 1 128 136
M  V30 134 1 130 124
M  V30 135 1 130 132
M  V30 136 1 133 123
M  V30 137 1 133 134
M  V30 138 1 133 135
M  V30 139 1 136 137
M  V30 140 1 136 138
M  V30 141 1 136 139
M  V30 142 1 137 140
M  V30 143 1 74 117
M  V30 144 1 99 102
M  V30 145 1 88 137
M  V30 146 1 85 122
M  V30 147 1 27 36
M  V30 148 1 142 143
M  V30 149 2 143 144
M  V30 150 1 143 151
M  V30 151 1 144 145
M  V30 152 1 144 152
M  V30 153 2 145 146
M  V30 154 1 145 153
M  V30 155 1 146 147
M  V30 156 1 146 148
M  V30 157 2 147 142
M  V30 158 1 147 150
M  V30 159 3 148 149
M  V30 160 1 154 155
M  V30 161 2 155 156
M  V30 162 1 155 163
M  V30 163 1 156 157
M  V30 164 1 156 164
M  V30 165 2 157 158
M  V30 166 1 157 165
M  V30 167 1 158 159
M  V30 168 1 158 160
M  V30 169 2 159 154
M  V30 170 1 159 162
M  V30 171 3 160 161
M  V30 172 1 166 167
M  V30 173 2 167 168
M  V30 174 1 167 173
M  V30 175 1 168 169
M  V30 176 2 169 170
M  V30 177 1 169 174
M  V30 178 1 170 171
M  V30 179 2 171 166
M  V30 180 1 171 172
M  V30 181 1 149 168
M  V30 182 1 161 170
M  V30 183 2 175 176
M  V30 184 1 175 177
M  V30 185 1 177 178
M  V30 186 1 177 184
M  V30 187 1 178 179
M  V30 188 1 178 180
M  V30 189 1 178 181
M  V30 190 2 179 182
M  V30 191 1 179 183
M  V30 192 1 183 185
M  V30 193 1 183 186
M  V30 194 1 185 187
M  V30 195 1 185 188
M  V30 196 1 189 190
M  V30 197 1 189 191
M  V30 198 1 189 212
M  V30 199 1 190 202
M  V30 200 1 191 192
M  V30 201 2 192 193
M  V30 202 1 192 198
M  V30 203 1 193 194
M  V30 204 1 193 199
M  V30 205 2 194 195
M  V30 206 1 194 200
M  V30 207 1 195 196
M  V30 208 1 195 201
M  V30 209 2 196 191
M  V30 210 1 196 197
M  V30 211 2 202 203
M  V30 212 1 202 208
M  V30 213 1 203 204
M  V30 214 1 203 209
M  V30 215 2 204 205
M  V30 216 1 204 210
M  V30 217 1 205 206
M  V30 218 1 205 211
M  V30 219 2 206 190
M  V30 220 1 206 207
M  V30 221 1 185 189
M  V30 222 2 213 214
M  V30 223 1 213 216
M  V30 224 1 215 216
M  V30 225 2 215 217
M  V30 226 1 215 221
M  V30 227 2 216 219
M  V30 228 1 217 218
M  V30 229 1 217 222
M  V30 230 1 218 226
M  V30 231 1 219 220
M  V30 232 1 219 223
M  V30 233 2 220 218
M  V30 234 2 224 225
M  V30 235 1 224 220
M  V30 236 2 227 228
M  V30 237 1 227 230
M  V30 238 1 229 230
M  V30 239 2 229 231
M  V30 240 1 229 235
M  V30 241 2 230 233
M  V30 242 1 231 232
M  V30 243 1 231 236
M  V30 244 1 232 240
M  V30 245 1 233 234
M  V30 246 1 233 237
M  V30 247 2 234 232
M  V30 248 2 238 239
M  V30 249 1 238 234
M  V30 250 1 241 252
M  V30 251 1 241 260
M  V30 252 2 242 243
M  V30 253 1 242 244
M  V30 254 1 243 250
M  V30 255 2 244 245
M  V30 256 1 244 246
M  V30 257 1 245 247
M  V30 258 1 245 248
M  V30 259 2 247 249
M  V30 260 1 247 255
M  V30 261 1 249 243
M  V30 262 1 249 251
M  V30 263 1 252 242
M  V30 264 1 252 253
M  V30 265 1 252 254
M  V30 266 1 255 256
M  V30 267 1 255 257
M  V30 268 1 255 258
M  V30 269 1 256 259
M  V30 270 1 261 272
M  V30 271 1 261 280
M  V30 272 2 262 263
M  V30 273 1 262 264
M  V30 274 1 263 270
M  V30 275 2 264 265
M  V30 276 1 264 266
M  V30 277 1 265 267
M  V30 278 1 265 268
M  V30 279 2 267 269
M  V30 280 1 267 275
M  V30 281 1 269 263
M  V30 282 1 269 271
M  V30 283 1 272 262
M  V30 284 1 272 273
M  V30 285 1 272 274
M  V30 286 1 275 276
M  V30 287 1 275 277
M  V30 288 1 275 278
M  V30 289 1 276 279
M  V30 290 1 213 256
M  V30 291 1 238 241
M  V30 292 1 227 276
M  V30 293 1 224 261
M  V30 294 1 166 175
M  V30 295 1 281 282
M  V30 296 2 282 283
M  V30 297 1 282 290
M  V30 298 1 283 284
M  V30 299 1 283 291
M  V30 300 2 284 285
M  V30 301 1 284 292
M  V30 302 1 285 286
M  V30 303 1 285 287
M  V30 304 2 286 281
M  V30 305 1 286 289
M  V30 306 3 287 288
M  V30 307 1 293 294
M  V30 308 2 294 295
M  V30 309 1 294 302
M  V30 310 1 295 296
M  V30 311 1 295 303
M  V30 312 2 296 297
M  V30 313 1 296 304
M  V30 314 1 297 298
M  V30 315 1 297 299
M  V30 316 2 298 293
M  V30 317 1 298 301
M  V30 318 3 299 300
M  V30 319 1 305 306
M  V30 320 2 306 307
M  V30 321 1 306 312
M  V30 322 1 307 308
M  V30 323 2 308 309
M  V30 324 1 308 313
M  V30 325 1 309 310
M  V30 326 2 310 305
M  V30 327 1 310 311
M  V30 328 1 288 307
M  V30 329 1 300 309
M  V30 330 2 314 315
M  V30 331 1 314 316
M  V30 332 1 316 317
M  V30 333 1 316 323
M  V30 334 1 317 318
M  V30 335 1 317 319
M  V30 336 1 317 320
M  V30 337 2 318 321
M  V30 338 1 318 322
M  V30 339 1 322 324
M  V30 340 1 322 325
M  V30 341 1 324 326
M  V30 342 1 324 327
M  V30 343 1 328 329
M  V30 344 1 328 330
M  V30 345 1 328 351
M  V30 346 1 329 341
M  V30 347 1 330 331
M  V30 348 2 331 332
M  V30 349 1 331 337
M  V30 350 1 332 333
M  V30 351 1 332 338
M  V30 352 2 333 334
M  V30 353 1 333 339
M  V30 354 1 334 335
M  V30 355 1 334 340
M  V30 356 2 335 330
M  V30 357 1 335 336
M  V30 358 2 341 342
M  V30 359 1 341 347
M  V30 360 1 342 343
M  V30 361 1 342 348
M  V30 362 2 343 344
M  V30 363 1 343 349
M  V30 364 1 344 345
M  V30 365 1 344 350
M  V30 366 2 345 329
M  V30 367 1 345 346
M  V30 368 1 324 328
M  V30 369 2 352 353
M  V30 370 1 352 355
M  V30 371 1 354 355
M  V30 372 2 354 356
M  V30 373 1 354 360
M  V30 374 2 355 358
M  V30 375 1 356 357
M  V30 376 1 356 361
M  V30 377 1 357 365
M  V30 378 1 358 359
M  V30 379 1 358 362
M  V30 380 2 359 357
M  V30 381 2 363 364
M  V30 382 1 363 359
M  V30 383 2 366 367
M  V30 384 1 366 369
M  V30 385 1 368 369
M  V30 386 2 368 370
M  V30 387 1 368 374
M  V30 388 2 369 372
M  V30 389 1 370 371
M  V30 390 1 370 375
M  V30 391 1 371 379
M  V30 392 1 372 373
M  V30 393 1 372 376
M  V30 394 2 373 371
M  V30 395 2 377 378
M  V30 396 1 377 373
M  V30 397 1 380 391
M  V30 398 1 380 399
M  V30 399 2 381 382
M  V30 400 1 381 383
M  V30 401 1 382 389
M  V30 402 2 383 384
M  V30 403 1 383 385
M  V30 404 1 384 386
M  V30 405 1 384 387
M  V30 406 2 386 388
M  V30 407 1 386 394
M  V30 408 1 388 382
M  V30 409 1 388 390
M  V30 410 1 391 381
M  V30 411 1 391 392
M  V30 412 1 391 393
M  V30 413 1 394 395
M  V30 414 1 394 396
M  V30 415 1 394 397
M  V30 416 1 395 398
M  V30 417 1 400 411
M  V30 418 1 400 419
M  V30 419 2 401 402
M  V30 420 1 401 403
M  V30 421 1 402 409
M  V30 422 2 403 404
M  V30 423 1 403 405
M  V30 424 1 404 406
M  V30 425 1 404 407
M  V30 426 2 406 408
M  V30 427 1 406 414
M  V30 428 1 408 402
M  V30 429 1 408 410
M  V30 430 1 411 401
M  V30 431 1 411 412
M  V30 432 1 411 413
M  V30 433 1 414 415
M  V30 434 1 414 416
M  V30 435 1 414 417
M  V30 436 1 415 418
M  V30 437 1 352 395
M  V30 438 1 377 380
M  V30 439 1 366 415
M  V30 440 1 363 400
M  V30 441 1 305 314
M  V30 442 1 420 421
M  V30 443 2 421 422
M  V30 444 1 421 429
M  V30 445 1 422 423
M  V30 446 1 422 430
M  V30 447 2 423 424
M  V30 448 1 423 431
M  V30 449 1 424 425
M  V30 450 1 424 426
M  V30 451 2 425 420
M  V30 452 1 425 428
M  V30 453 3 426 427
M  V30 454 1 432 433
M  V30 455 2 433 434
M  V30 456 1 433 441
M  V30 457 1 434 435
M  V30 458 1 434 442
M  V30 459 2 435 436
M  V30 460 1 435 443
M  V30 461 1 436 437
M  V30 462 1 436 438
M  V30 463 2 437 432
M  V30 464 1 437 440
M  V30 465 3 438 439
M  V30 466 1 444 445
M  V30 467 2 445 446
M  V30 468 1 445 451
M  V30 469 1 446 447
M  V30 470 2 447 448
M  V30 471 1 447 452
M  V30 472 1 448 449
M  V30 473 2 449 444
M  V30 474 1 449 450
M  V30 475 1 427 446
M  V30 476 1 439 448
M  V30 477 2 453 454
M  V30 478 1 453 455
M  V30 479 1 455 456
M  V30 480 1 455 462
M  V30 481 1 456 457
M  V30 482 1 456 458
M  V30 483 1 456 459
M  V30 484 2 457 460
M  V30 485 1 457 461
M  V30 486 1 461 463
M  V30 487 1 461 464
M  V30 488 1 463 465
M  V30 489 1 463 466
M  V30 490 1 467 468
M  V30 491 1 467 469
M  V30 492 1 467 490
M  V30 493 1 468 480
M  V30 494 1 469 470
M  V30 495 2 470 471
M  V30 496 1 470 476
M  V30 497 1 471 472
M  V30 498 1 471 477
M  V30 499 2 472 473
M  V30 500 1 472 478
M  V30 501 1 473 474
M  V30 502 1 473 479
M  V30 503 2 474 469
M  V30 504 1 474 475
M  V30 505 2 480 481
M  V30 506 1 480 486
M  V30 507 1 481 482
M  V30 508 1 481 487
M  V30 509 2 482 483
M  V30 510 1 482 488
M  V30 511 1 483 484
M  V30 512 1 483 489
M  V30 513 2 484 468
M  V30 514 1 484 485
M  V30 515 1 463 467
M  V30 516 2 491 492
M  V30 517 1 491 494
M  V30 518 1 493 494
M  V30 519 2 493 495
M  V30 520 1 493 499
M  V30 521 2 494 497
M  V30 522 1 495 496
M  V30 523 1 495 500
M  V30 524 1 496 504
M  V30 525 1 497 498
M  V30 526 1 497 501
M  V30 527 2 498 496
M  V30 528 2 502 503
M  V30 529 1 502 498
M  V30 530 2 505 506
M  V30 531 1 505 508
M  V30 532 1 507 508
M  V30 533 2 507 509
M  V30 534 1 507 513
M  V30 535 2 508 511
M  V30 536 1 509 510
M  V30 537 1 509 514
M  V30 538 1 510 518
M  V30 539 1 511 512
M  V30 540 1 511 515
M  V30 541 2 512 510
M  V30 542 2 516 517
M  V30 543 1 516 512
M  V30 544 1 519 530
M  V30 545 1 519 538
M  V30 546 2 520 521
M  V30 547 1 520 522
M  V30 548 1 521 528
M  V30 549 2 522 523
M  V30 550 1 522 524
M  V30 551 1 523 525
M  V30 552 1 523 526
M  V30 553 2 525 527
M  V30 554 1 525 533
M  V30 555 1 527 521
M  V30 556 1 527 529
M  V30 557 1 530 520
M  V30 558 1 530 531
M  V30 559 1 530 532
M  V30 560 1 533 534
M  V30 561 1 533 535
M  V30 562 1 533 536
M  V30 563 1 534 537
M  V30 564 1 539 550
M  V30 565 1 539 558
M  V30 566 2 540 541
M  V30 567 1 540 542
M  V30 568 1 541 548
M  V30 569 2 542 543
M  V30 570 1 542 544
M  V30 571 1 543 545
M  V30 572 1 543 546
M  V30 573 2 545 547
M  V30 574 1 545 553
M  V30 575 1 547 541
M  V30 576 1 547 549
M  V30 577 1 550 540
M  V30 578 1 550 551
M  V30 579 1 550 552
M  V30 580 1 553 554
M  V30 581 1 553 555
M  V30 582 1 553 556
M  V30 583 1 554 557
M  V30 584 1 491 534
M  V30 585 1 516 519
M  V30 586 1 505 554
M  V30 587 1 502 539
M  V30 588 1 444 453
M  V30 589 9 3 1
M  V30 590 9 142 1
M  V30 591 9 281 1
M  V30 592 9 420 1
M  V30 593 9 15 2
M  V30 594 9 154 2
M  V30 595 9 293 2
M  V30 596 9 432 2
M  V30 END BOND
M  V30 END CTAB
M  END

$$$$
