
 OpenBabel12162013563D

 18 18  0  0  0  0  0  0  0  0999 V2000
   11.3448   -0.4945    0.0948 O   0  0  0  0  0  0  0  0  0  0  0  0
   12.2776   -0.8339    1.0161 C   0  0  0  0  0  0  0  0  0  0  0  0
   12.1245   -1.8757    1.6347 O   0  0  0  0  0  0  0  0  0  0  0  0
   14.4179   -0.4163    2.2535 C   0  0  0  0  0  0  0  0  0  0  0  0
   13.4813    0.0158    1.2958 C   0  0  0  0  0  0  0  0  0  0  0  0
   15.5495    0.3459    2.5348 C   0  0  0  0  0  0  0  0  0  0  0  0
   15.7697    1.5506    1.8711 C   0  0  0  0  0  0  0  0  0  0  0  0
   13.7089    1.2401    0.6280 C   0  0  0  0  0  0  0  0  0  0  0  0
   14.8539    2.0185    0.9102 C   0  0  0  0  0  0  0  0  0  0  0  0
   14.2743   -1.3486    2.7851 H   0  0  0  0  0  0  0  0  0  0  0  0
   16.2617   -0.0000    3.2731 H   0  0  0  0  0  0  0  0  0  0  0  0
   13.0049    1.5820   -0.1035 H   0  0  0  0  0  0  0  0  0  0  0  0
   15.1222    3.3221    0.2192 C   0  0  0  0  0  0  0  0  0  0  0  0
   16.1472    3.9347    0.4753 O   0  0  0  0  0  0  0  0  0  0  0  0
   14.2650    3.8585   -0.6817 O   0  0  0  0  0  0  0  0  0  0  0  0
   13.4226    3.4638   -0.9319 H   0  0  0  0  0  0  0  0  0  0  0  0
   11.3819    0.2993   -0.4497 H   0  0  0  0  0  0  0  0  0  0  0  0
   16.6581    2.1212    2.1114 H   0  0  0  0  0  0  0  0  0  0  0  0
  1  2  1  0  0  0  0
  1 17  1  0  0  0  0
  2  3  2  0  0  0  0
  2  5  1  0  0  0  0
  4  5  1  0  0  0  0
  4  6  2  0  0  0  0
  4 10  1  0  0  0  0
  5  8  2  0  0  0  0
  6  7  1  0  0  0  0
  6 11  1  0  0  0  0
  7 18  1  0  0  0  0
  8  9  1  0  0  0  0
  8 12  1  0  0  0  0
  9  7  2  0  0  0  0
 13 14  2  0  0  0  0
 13 15  1  0  0  0  0
 13  9  1  0  0  0  0
 15 16  1  0  0  0  0
M  END
