
     RDKit          3D

  0  0  0  0  0  0  0  0  0  0999 V3000
M  V30 BEGIN CTAB
M  V30 COUNTS 139 147 0 0 0
M  V30 BEGIN ATOM
M  V30 1 N 8.2748 -5.7128 -0.3432 0
M  V30 2 C 8.6599 -7.0057 -0.1860 0
M  V30 3 C 10.0149 -7.3215 -0.0492 0
M  V30 4 C 10.9638 -6.2936 -0.0864 0
M  V30 5 C 10.5405 -4.9667 -0.2522 0
M  V30 6 C 9.1730 -4.6948 -0.3794 0
M  V30 7 C 11.4841 -3.8824 -0.2744 0
M  V30 8 C 12.2453 -2.9452 -0.2950 0
M  V30 9 H 8.8236 -3.6767 -0.5142 0
M  V30 10 H 7.9142 -7.7897 -0.1571 0
M  V30 11 H 10.3276 -8.3455 0.0783 0
M  V30 12 H 12.0149 -6.5246 0.0251 0
M  V30 13 N 9.6367 5.6682 -0.7366 0
M  V30 14 C 10.0831 6.6501 0.0920 0
M  V30 15 C 11.2487 6.4586 0.8395 0
M  V30 16 C 11.9431 5.2499 0.7314 0
M  V30 17 C 11.4637 4.2501 -0.1274 0
M  V30 18 C 10.2906 4.4810 -0.8580 0
M  V30 19 C 12.1470 2.9854 -0.2236 0
M  V30 20 C 12.6997 1.9190 -0.2870 0
M  V30 21 H 9.8973 3.7250 -1.5243 0
M  V30 22 H 9.5355 7.5810 0.1719 0
M  V30 23 H 11.6073 7.2345 1.5031 0
M  V30 24 H 12.8394 5.0857 1.3134 0
M  V30 25 C 15.3172 -0.7660 -0.1120 0
M  V30 26 C 14.4916 -1.9140 -0.1597 0
M  V30 27 C 13.1027 -1.7890 -0.3106 0
M  V30 28 C 12.5174 -0.5163 -0.3806 0
M  V30 29 C 13.3206 0.6262 -0.3258 0
M  V30 30 C 14.7173 0.5038 -0.2095 0
M  V30 31 H 15.3195 1.3942 -0.1211 0
M  V30 32 H 14.9192 -2.9015 -0.0574 0
M  V30 33 H 11.4368 -0.4163 -0.4527 0
M  V30 34 C 16.7651 -0.8749 0.1956 0
M  V30 35 O 17.1784 -1.8427 0.8972 0
M  V30 36 N 17.6794 0.1637 -0.1926 0
M  V30 37 C 18.7590 0.6130 0.6939 0
M  V30 38 C 19.9863 -0.2300 0.4910 0
M  V30 39 H 18.9966 1.6737 0.4529 0
M  V30 40 H 18.4380 0.5571 1.7566 0
M  V30 41 O 19.8790 -1.4867 0.4940 0
M  V30 42 N 21.2843 0.3720 0.3822 0
M  V30 43 H 17.5721 0.6053 -1.1406 0
M  V30 44 C 22.3803 -0.3110 -0.3139 0
M  V30 45 H 21.3926 1.3870 0.6290 0
M  V30 46 H 22.1869 -1.4068 -0.3351 0
M  V30 47 H 22.3816 0.0268 -1.3636 0
M  V30 48 C 23.7411 -0.0445 0.3643 0
M  V30 49 C 24.7394 -1.1502 0.0927 0
M  V30 50 C 24.3534 1.2984 0.0182 0
M  V30 51 C 24.4855 1.7369 -1.3159 0
M  V30 52 C 25.1583 2.9275 -1.6075 0
M  V30 53 C 25.7267 3.6839 -0.5804 0
M  V30 54 C 25.6262 3.2495 0.7406 0
M  V30 55 C 24.9495 2.0643 1.0386 0
M  V30 56 H 24.9366 1.7130 2.0612 0
M  V30 57 H 24.1001 1.1570 -2.1381 0
M  V30 58 H 25.2532 3.2563 -2.6336 0
M  V30 59 H 26.2608 4.5972 -0.8126 0
M  V30 60 H 26.0822 3.8266 1.5360 0
M  V30 61 C 25.5424 -1.6235 1.1466 0
M  V30 62 C 26.4719 -2.6456 0.9289 0
M  V30 63 C 26.6241 -3.1873 -0.3463 0
M  V30 64 C 25.8579 -2.7013 -1.4100 0
M  V30 65 C 24.9254 -1.6829 -1.1960 0
M  V30 66 H 24.3495 -1.3142 -2.0346 0
M  V30 67 H 25.4520 -1.2012 2.1363 0
M  V30 68 H 27.0682 -3.0151 1.7517 0
M  V30 69 H 27.3345 -3.9855 -0.5124 0
M  V30 70 H 25.9954 -3.1097 -2.4026 0
M  V30 71 H 23.5185 -0.0597 1.4514 0
M  V30 72 C 21.2558 2.4007 -3.6652 0
M  V30 73 O 20.0463 2.4197 -3.3178 0
M  V30 74 C 22.9546 1.1360 -5.0228 0
M  V30 75 C 21.8506 1.1330 -4.1509 0
M  V30 76 C 23.5413 -0.0687 -5.4207 0
M  V30 77 C 23.0492 -1.2849 -4.9424 0
M  V30 78 C 21.3238 -0.0992 -3.7221 0
M  V30 79 C 21.9522 -1.3091 -4.0660 0
M  V30 80 H 23.3555 2.0627 -5.4119 0
M  V30 81 H 24.3829 -0.0624 -6.1022 0
M  V30 82 H 20.4752 -0.1144 -3.0483 0
M  V30 83 C 21.4653 -2.5836 -3.4967 0
M  V30 84 O 20.2306 -2.7406 -3.3077 0
M  V30 85 H 23.5241 -2.2062 -5.2597 0
M  V30 86 C 22.8535 -2.1875 3.9961 0
M  V30 87 O 21.6165 -2.4195 4.0825 0
M  V30 88 C 24.5976 -0.6301 4.9067 0
M  V30 89 C 23.3505 -0.8270 4.2919 0
M  V30 90 C 25.0570 0.6621 5.1734 0
M  V30 91 C 24.2910 1.7710 4.8082 0
M  V30 92 C 22.5716 0.2936 3.9599 0
M  V30 93 C 23.0508 1.5971 4.1630 0
M  V30 94 H 25.2087 -1.4739 5.2036 0
M  V30 95 H 26.0124 0.8080 5.6596 0
M  V30 96 H 21.6135 0.1453 3.4680 0
M  V30 97 C 22.2659 2.7567 3.6781 0
M  V30 98 O 21.0145 2.6525 3.5642 0
M  V30 99 H 24.6698 2.7609 5.0230 0
M  V30 100 N 22.9137 3.9792 3.2846 0
M  V30 101 C 22.0210 5.0419 1.2815 0
M  V30 102 C 23.0196 5.5457 0.4302 0
M  V30 103 C 20.8832 4.4351 0.7277 0
M  V30 104 C 20.7284 4.3702 -0.6589 0
M  V30 105 H 20.1089 4.0373 1.3637 0
M  V30 106 C 21.7055 4.9024 -1.5136 0
M  V30 107 H 19.8343 3.9111 -1.0650 0
M  V30 108 C 22.8615 5.4735 -0.9599 0
M  V30 109 H 23.9120 5.9984 0.8393 0
M  V30 110 H 23.6375 5.8686 -1.6054 0
M  V30 111 C 22.1775 5.1368 2.7754 0
M  V30 112 H 22.7304 6.0650 3.0395 0
M  V30 113 H 21.1827 5.2121 3.2746 0
M  V30 114 C 21.5128 4.8444 -3.0078 0
M  V30 115 N 22.0499 3.5929 -3.5390 0
M  V30 116 H 22.0339 5.6963 -3.4957 0
M  V30 117 H 20.4398 4.9423 -3.2621 0
M  V30 118 H 23.0820 3.5515 -3.6998 0
M  V30 119 H 23.9588 4.0399 3.2998 0
M  V30 120 N 22.3826 -3.6496 -3.1880 0
M  V30 121 C 22.3329 -4.7821 -1.0346 0
M  V30 122 C 23.5908 -5.2029 -0.5715 0
M  V30 123 C 21.4159 -4.2391 -0.1285 0
M  V30 124 C 21.7343 -4.1458 1.2313 0
M  V30 125 H 20.4447 -3.8979 -0.4705 0
M  V30 126 C 22.9742 -4.5949 1.7030 0
M  V30 127 H 20.9971 -3.7479 1.9175 0
M  V30 128 C 23.9060 -5.1147 0.7898 0
M  V30 129 H 24.3213 -5.6129 -1.2584 0
M  V30 130 H 24.8749 -5.4666 1.1350 0
M  V30 131 C 21.9795 -4.8741 -2.4975 0
M  V30 132 H 22.5028 -5.7387 -2.9630 0
M  V30 133 H 20.8927 -5.0666 -2.6262 0
M  V30 134 C 23.2835 -4.5580 3.1808 0
M  V30 135 N 23.7500 -3.2354 3.5870 0
M  V30 136 H 24.0655 -5.3063 3.4264 0
M  V30 137 H 22.3850 -4.8486 3.7663 0
M  V30 138 H 24.7733 -3.0445 3.5119 0
M  V30 139 H 23.4090 -3.4966 -3.3185 0
M  V30 END ATOM
M  V30 BEGIN BOND
M  V30 1 1 1 2
M  V30 2 2 2 3
M  V30 3 1 2 10
M  V30 4 1 3 4
M  V30 5 1 3 11
M  V30 6 2 4 5
M  V30 7 1 4 12
M  V30 8 1 5 6
M  V30 9 1 5 7
M  V30 10 2 6 1
M  V30 11 1 6 9
M  V30 12 3 7 8
M  V30 13 1 13 14
M  V30 14 2 14 15
M  V30 15 1 14 22
M  V30 16 1 15 16
M  V30 17 1 15 23
M  V30 18 2 16 17
M  V30 19 1 16 24
M  V30 20 1 17 18
M  V30 21 1 17 19
M  V30 22 2 18 13
M  V30 23 1 18 21
M  V30 24 3 19 20
M  V30 25 1 25 26
M  V30 26 2 26 27
M  V30 27 1 26 32
M  V30 28 1 27 28
M  V30 29 2 28 29
M  V30 30 1 28 33
M  V30 31 1 29 30
M  V30 32 2 30 25
M  V30 33 1 30 31
M  V30 34 1 8 27
M  V30 35 1 20 29
M  V30 36 2 34 35
M  V30 37 1 34 36
M  V30 38 1 36 37
M  V30 39 1 36 43
M  V30 40 1 37 38
M  V30 41 1 37 39
M  V30 42 1 37 40
M  V30 43 2 38 41
M  V30 44 1 38 42
M  V30 45 1 42 44
M  V30 46 1 42 45
M  V30 47 1 44 46
M  V30 48 1 44 47
M  V30 49 1 48 49
M  V30 50 1 48 50
M  V30 51 1 48 71
M  V30 52 1 49 61
M  V30 53 1 50 51
M  V30 54 2 51 52
M  V30 55 1 51 57
M  V30 56 1 52 53
M  V30 57 1 52 58
M  V30 58 2 53 54
M  V30 59 1 53 59
M  V30 60 1 54 55
M  V30 61 1 54 60
M  V30 62 2 55 50
M  V30 63 1 55 56
M  V30 64 2 61 62
M  V30 65 1 61 67
M  V30 66 1 62 63
M  V30 67 1 62 68
M  V30 68 2 63 64
M  V30 69 1 63 69
M  V30 70 1 64 65
M  V30 71 1 64 70
M  V30 72 2 65 49
M  V30 73 1 65 66
M  V30 74 1 44 48
M  V30 75 2 72 73
M  V30 76 1 72 75
M  V30 77 1 74 75
M  V30 78 2 74 76
M  V30 79 1 74 80
M  V30 80 2 75 78
M  V30 81 1 76 77
M  V30 82 1 76 81
M  V30 83 1 77 85
M  V30 84 1 78 79
M  V30 85 1 78 82
M  V30 86 2 79 77
M  V30 87 2 83 84
M  V30 88 1 83 79
M  V30 89 2 86 87
M  V30 90 1 86 89
M  V30 91 1 88 89
M  V30 92 2 88 90
M  V30 93 1 88 94
M  V30 94 2 89 92
M  V30 95 1 90 91
M  V30 96 1 90 95
M  V30 97 1 91 99
M  V30 98 1 92 93
M  V30 99 1 92 96
M  V30 100 2 93 91
M  V30 101 2 97 98
M  V30 102 1 97 93
M  V30 103 1 100 111
M  V30 104 1 100 119
M  V30 105 2 101 102
M  V30 106 1 101 103
M  V30 107 1 102 109
M  V30 108 2 103 104
M  V30 109 1 103 105
M  V30 110 1 104 106
M  V30 111 1 104 107
M  V30 112 2 106 108
M  V30 113 1 106 114
M  V30 114 1 108 102
M  V30 115 1 108 110
M  V30 116 1 111 101
M  V30 117 1 111 112
M  V30 118 1 111 113
M  V30 119 1 114 115
M  V30 120 1 114 116
M  V30 121 1 114 117
M  V30 122 1 115 118
M  V30 123 1 120 131
M  V30 124 1 120 139
M  V30 125 2 121 122
M  V30 126 1 121 123
M  V30 127 1 122 129
M  V30 128 2 123 124
M  V30 129 1 123 125
M  V30 130 1 124 126
M  V30 131 1 124 127
M  V30 132 2 126 128
M  V30 133 1 126 134
M  V30 134 1 128 122
M  V30 135 1 128 130
M  V30 136 1 131 121
M  V30 137 1 131 132
M  V30 138 1 131 133
M  V30 139 1 134 135
M  V30 140 1 134 136
M  V30 141 1 134 137
M  V30 142 1 135 138
M  V30 143 1 72 115
M  V30 144 1 97 100
M  V30 145 1 86 135
M  V30 146 1 83 120
M  V30 147 1 25 34
M  V30 END BOND
M  V30 END CTAB
M  END

$$$$
