
     RDKit          3D

  0  0  0  0  0  0  0  0  0  0999 V3000
M  V30 BEGIN CTAB
M  V30 COUNTS 139 147 0 0 0
M  V30 BEGIN ATOM
M  V30 1 N 8.0525 -5.8582 -0.1612 0
M  V30 2 C 8.6316 -7.0580 -0.0298 0
M  V30 3 C 10.0123 -7.1036 0.1111 0
M  V30 4 C 10.7635 -5.9403 0.1151 0
M  V30 5 C 10.1478 -4.7125 -0.0216 0
M  V30 6 C 8.7646 -4.7366 -0.1586 0
M  V30 7 C 10.9012 -3.4904 -0.0210 0
M  V30 8 C 11.5166 -2.4530 -0.0231 0
M  V30 9 H 8.2255 -3.7974 -0.2700 0
M  V30 10 H 8.0615 -7.9851 -0.0302 0
M  V30 11 H 10.5183 -8.0545 0.2200 0
M  V30 12 H 11.8237 -6.0026 0.2251 0
M  V30 13 N 8.3091 6.0487 -0.7968 0
M  V30 14 C 8.7266 7.1051 -0.0928 0
M  V30 15 C 9.8747 7.0253 0.6523 0
M  V30 16 C 10.5678 5.8253 0.6428 0
M  V30 17 C 10.1192 4.7409 -0.0934 0
M  V30 18 C 8.9596 4.8713 -0.8262 0
M  V30 19 C 10.8382 3.4983 -0.1024 0
M  V30 20 C 11.4519 2.4593 -0.0919 0
M  V30 21 H 8.6255 4.0246 -1.3900 0
M  V30 22 H 8.1923 8.0543 -0.0759 0
M  V30 23 H 10.2723 7.8368 1.2451 0
M  V30 24 H 11.4747 5.7539 1.2281 0
M  V30 25 C 14.2828 0.0000 0.0000 0
M  V30 26 C 13.6089 -1.2037 0.0027 0
M  V30 27 C 12.2356 -1.1915 -0.0257 0
M  V30 28 C 11.5355 0.0139 -0.0566 0
M  V30 29 C 12.2010 1.2218 -0.0595 0
M  V30 30 C 13.5793 1.2060 -0.0310 0
M  V30 31 H 14.1076 2.1323 -0.0329 0
M  V30 32 H 14.1083 -2.1675 0.0262 0
M  V30 33 H 10.4465 -0.0628 -0.0779 0
M  V30 34 C 16.2700 0.0000 0.0000 0
M  V30 35 O 15.2479 -0.4841 0.4836 0
M  V30 36 N 17.5677 -0.1342 0.6691 0
M  V30 37 C 18.6731 -0.7504 -0.0073 0
M  V30 38 C 19.8262 -0.8994 0.9363 0
M  V30 39 H 18.5008 -1.8523 -0.3063 0
M  V30 40 H 18.9556 -0.3251 -0.9706 0
M  V30 41 O 19.9623 -1.9119 1.6745 0
M  V30 42 N 20.9121 0.0888 0.8838 0
M  V30 43 H 17.3276 -0.4123 1.6857 0
M  V30 44 C 21.8971 0.0217 -0.1604 0
M  V30 45 H 21.1449 0.7117 1.6872 0
M  V30 46 H 21.7703 -0.8825 -0.7589 0
M  V30 47 H 21.5952 0.7761 -0.8660 0
M  V30 48 C 23.4520 0.0326 0.2903 0
M  V30 49 C 24.2967 -1.1086 -0.3143 0
M  V30 50 C 24.2942 1.2753 0.0999 0
M  V30 51 C 24.0922 2.0327 -1.0385 0
M  V30 52 C 25.1625 2.7353 -1.5585 0
M  V30 53 C 26.3652 2.8422 -0.9082 0
M  V30 54 C 26.5196 2.2747 0.3508 0
M  V30 55 C 25.5056 1.4564 0.8080 0
M  V30 56 H 25.6686 0.8508 1.7222 0
M  V30 57 H 23.3130 1.7905 -1.7203 0
M  V30 58 H 25.1124 3.1251 -2.5409 0
M  V30 59 H 27.2033 3.4506 -1.3994 0
M  V30 60 H 27.5127 2.3059 0.8012 0
M  V30 61 C 24.5410 -2.1948 0.4842 0
M  V30 62 C 25.8727 -2.7124 0.5698 0
M  V30 63 C 26.8519 -2.2285 -0.2344 0
M  V30 64 C 26.5338 -1.3134 -1.2428 0
M  V30 65 C 25.2455 -0.7830 -1.3270 0
M  V30 66 H 25.1307 -0.0159 -2.0980 0
M  V30 67 H 23.7033 -2.5114 1.0617 0
M  V30 68 H 26.1130 -3.4061 1.3714 0
M  V30 69 H 27.9018 -2.5952 -0.0688 0
M  V30 70 H 27.3552 -0.9612 -1.8405 0
M  V30 71 H 23.4056 -0.1479 1.3456 0
M  V30 72 C 21.8251 2.3189 -4.0834 0
M  V30 73 O 20.7219 2.6505 -4.5885 0
M  V30 74 C 23.0318 0.8580 -5.7138 0
M  V30 75 C 22.5048 1.0261 -4.4456 0
M  V30 76 C 23.4102 -0.3913 -6.1727 0
M  V30 77 C 23.2316 -1.5255 -5.3906 0
M  V30 78 C 22.3284 -0.1399 -3.6536 0
M  V30 79 C 22.7046 -1.4570 -4.1247 0
M  V30 80 H 23.1021 1.6905 -6.4038 0
M  V30 81 H 23.7211 -0.5258 -7.1749 0
M  V30 82 H 21.8318 -0.0301 -2.7455 0
M  V30 83 C 22.6604 -2.6467 -3.1846 0
M  V30 84 O 22.7117 -2.4578 -1.9549 0
M  V30 85 H 23.5479 -2.4476 -5.7913 0
M  V30 86 C 23.5055 -2.2877 4.1753 0
M  V30 87 O 22.5322 -2.6801 4.8907 0
M  V30 88 C 24.9500 -0.6854 5.4188 0
M  V30 89 C 24.0248 -0.8748 4.3781 0
M  V30 90 C 25.2389 0.6251 5.8953 0
M  V30 91 C 24.7050 1.7421 5.2727 0
M  V30 92 C 23.3452 0.2474 3.8767 0
M  V30 93 C 23.7085 1.6042 4.2715 0
M  V30 94 H 25.3690 -1.4763 5.9497 0
M  V30 95 H 25.8914 0.7357 6.7590 0
M  V30 96 H 22.4094 0.1065 3.2984 0
M  V30 97 C 23.2660 2.7510 3.3506 0
M  V30 98 O 23.1931 2.4756 2.1059 0
M  V30 99 H 24.9221 2.7188 5.7066 0
M  V30 100 N 23.0463 4.1052 3.7851 0
M  V30 101 C 22.5265 5.2065 1.4323 0
M  V30 102 C 23.5991 5.3421 0.5314 0
M  V30 103 C 21.2464 5.3103 0.8241 0
M  V30 104 C 21.0576 5.1145 -0.5331 0
M  V30 105 H 20.3967 5.5758 1.4302 0
M  V30 106 C 22.1316 4.9400 -1.4100 0
M  V30 107 H 20.0984 5.3492 -0.9859 0
M  V30 108 C 23.4086 5.2354 -0.8668 0
M  V30 109 H 24.5675 5.6646 0.9413 0
M  V30 110 H 24.2820 5.3848 -1.5369 0
M  V30 111 C 22.6185 5.3295 3.0116 0
M  V30 112 H 23.2843 6.1884 3.3375 0
M  V30 113 H 21.6319 5.6507 3.3738 0
M  V30 114 C 21.8479 4.5847 -2.8629 0
M  V30 115 N 22.5471 3.3895 -3.4071 0
M  V30 116 H 21.9887 5.4839 -3.5112 0
M  V30 117 H 20.7257 4.4790 -2.9174 0
M  V30 118 H 23.5030 3.5762 -3.7984 0
M  V30 119 H 22.9232 4.2533 4.8366 0
M  V30 120 N 22.7688 -4.0378 -3.6396 0
M  V30 121 C 22.9296 -5.2331 -1.2797 0
M  V30 122 C 24.2287 -5.3572 -0.7124 0
M  V30 123 C 21.8903 -5.4524 -0.3529 0
M  V30 124 C 22.0957 -5.3868 1.0160 0
M  V30 125 H 20.9685 -5.8724 -0.6840 0
M  V30 126 C 23.3458 -5.0540 1.5574 0
M  V30 127 H 21.3030 -5.6826 1.7309 0
M  V30 128 C 24.4118 -5.3032 0.6826 0
M  V30 129 H 25.0611 -5.4859 -1.4160 0
M  V30 130 H 25.4312 -5.4214 1.0847 0
M  V30 131 C 22.6058 -5.2511 -2.8139 0
M  V30 132 H 23.0851 -6.1072 -3.3237 0
M  V30 133 H 21.5402 -5.4772 -2.8821 0
M  V30 134 C 23.4695 -4.5869 3.0328 0
M  V30 135 N 24.0698 -3.2157 3.2597 0
M  V30 136 H 23.9695 -5.3673 3.6583 0
M  V30 137 H 22.3942 -4.5969 3.4040 0
M  V30 138 H 25.1366 -3.1229 3.1903 0
M  V30 139 H 22.5240 -4.2158 -4.6718 0
M  V30 END ATOM
M  V30 BEGIN BOND
M  V30 1 1 1 2
M  V30 2 2 2 3
M  V30 3 1 2 10
M  V30 4 1 3 4
M  V30 5 1 3 11
M  V30 6 2 4 5
M  V30 7 1 4 12
M  V30 8 1 5 6
M  V30 9 1 5 7
M  V30 10 2 6 1
M  V30 11 1 6 9
M  V30 12 3 7 8
M  V30 13 1 13 14
M  V30 14 2 14 15
M  V30 15 1 14 22
M  V30 16 1 15 16
M  V30 17 1 15 23
M  V30 18 2 16 17
M  V30 19 1 16 24
M  V30 20 1 17 18
M  V30 21 1 17 19
M  V30 22 2 18 13
M  V30 23 1 18 21
M  V30 24 3 19 20
M  V30 25 1 25 26
M  V30 26 2 26 27
M  V30 27 1 26 32
M  V30 28 1 27 28
M  V30 29 2 28 29
M  V30 30 1 28 33
M  V30 31 1 29 30
M  V30 32 2 30 25
M  V30 33 1 30 31
M  V30 34 1 8 27
M  V30 35 1 20 29
M  V30 36 2 34 35
M  V30 37 1 34 36
M  V30 38 1 36 37
M  V30 39 1 36 43
M  V30 40 1 37 38
M  V30 41 1 37 39
M  V30 42 1 37 40
M  V30 43 2 38 41
M  V30 44 1 38 42
M  V30 45 1 42 44
M  V30 46 1 42 45
M  V30 47 1 44 46
M  V30 48 1 44 47
M  V30 49 1 48 49
M  V30 50 1 48 50
M  V30 51 1 48 71
M  V30 52 1 49 61
M  V30 53 1 50 51
M  V30 54 2 51 52
M  V30 55 1 51 57
M  V30 56 1 52 53
M  V30 57 1 52 58
M  V30 58 2 53 54
M  V30 59 1 53 59
M  V30 60 1 54 55
M  V30 61 1 54 60
M  V30 62 2 55 50
M  V30 63 1 55 56
M  V30 64 2 61 62
M  V30 65 1 61 67
M  V30 66 1 62 63
M  V30 67 1 62 68
M  V30 68 2 63 64
M  V30 69 1 63 69
M  V30 70 1 64 65
M  V30 71 1 64 70
M  V30 72 2 65 49
M  V30 73 1 65 66
M  V30 74 1 44 48
M  V30 75 2 72 73
M  V30 76 1 72 75
M  V30 77 1 74 75
M  V30 78 2 74 76
M  V30 79 1 74 80
M  V30 80 2 75 78
M  V30 81 1 76 77
M  V30 82 1 76 81
M  V30 83 1 77 85
M  V30 84 1 78 79
M  V30 85 1 78 82
M  V30 86 2 79 77
M  V30 87 2 83 84
M  V30 88 1 83 79
M  V30 89 2 86 87
M  V30 90 1 86 89
M  V30 91 1 88 89
M  V30 92 2 88 90
M  V30 93 1 88 94
M  V30 94 2 89 92
M  V30 95 1 90 91
M  V30 96 1 90 95
M  V30 97 1 91 99
M  V30 98 1 92 93
M  V30 99 1 92 96
M  V30 100 2 93 91
M  V30 101 2 97 98
M  V30 102 1 97 93
M  V30 103 1 100 111
M  V30 104 1 100 119
M  V30 105 2 101 102
M  V30 106 1 101 103
M  V30 107 1 102 109
M  V30 108 2 103 104
M  V30 109 1 103 105
M  V30 110 1 104 106
M  V30 111 1 104 107
M  V30 112 2 106 108
M  V30 113 1 106 114
M  V30 114 1 108 102
M  V30 115 1 108 110
M  V30 116 1 111 101
M  V30 117 1 111 112
M  V30 118 1 111 113
M  V30 119 1 114 115
M  V30 120 1 114 116
M  V30 121 1 114 117
M  V30 122 1 115 118
M  V30 123 1 120 131
M  V30 124 1 120 139
M  V30 125 2 121 122
M  V30 126 1 121 123
M  V30 127 1 122 129
M  V30 128 2 123 124
M  V30 129 1 123 125
M  V30 130 1 124 126
M  V30 131 1 124 127
M  V30 132 2 126 128
M  V30 133 1 126 134
M  V30 134 1 128 122
M  V30 135 1 128 130
M  V30 136 1 131 121
M  V30 137 1 131 132
M  V30 138 1 131 133
M  V30 139 1 134 135
M  V30 140 1 134 136
M  V30 141 1 134 137
M  V30 142 1 135 138
M  V30 143 1 72 115
M  V30 144 1 97 100
M  V30 145 1 86 135
M  V30 146 1 83 120
M  V30 147 1 25 34
M  V30 END BOND
M  V30 END CTAB
M  END

$$$$
