
     RDKit          3D

  0  0  0  0  0  0  0  0  0  0999 V3000
M  V30 BEGIN CTAB
M  V30 COUNTS 68 72 0 0 0
M  V30 BEGIN ATOM
M  V30 1 C 10.6653 2.5495 -0.0000 0
M  V30 2 O 10.2431 3.5807 0.4998 0
M  V30 3 C 9.2615 1.2085 1.5866 0
M  V30 4 C 10.1944 1.2291 0.5329 0
M  V30 5 C 8.7993 -0.0001 2.1027 0
M  V30 6 C 9.2566 -1.2086 1.5823 0
M  V30 7 C 10.6565 -0.0001 0.0113 0
M  V30 8 C 10.1928 -1.2293 0.5316 0
M  V30 9 H 8.8873 2.1315 2.0112 0
M  V30 10 H 8.0808 -0.0001 2.9125 0
M  V30 11 H 11.3666 -0.0004 -0.7908 0
M  V30 12 C 10.6653 -2.5495 0.0000 0
M  V30 13 O 10.2022 -3.5806 0.4624 0
M  V30 14 H 8.8794 -2.1318 2.0044 0
M  V30 15 C -10.6653 -2.5495 -0.0000 0
M  V30 16 O -10.2431 -3.5807 0.4998 0
M  V30 17 C -9.2615 -1.2085 1.5866 0
M  V30 18 C -10.1944 -1.2291 0.5329 0
M  V30 19 C -8.7993 0.0001 2.1027 0
M  V30 20 C -9.2566 1.2086 1.5823 0
M  V30 21 C -10.6565 0.0001 0.0113 0
M  V30 22 C -10.1928 1.2293 0.5316 0
M  V30 23 H -8.8873 -2.1315 2.0112 0
M  V30 24 H -8.0808 0.0001 2.9125 0
M  V30 25 H -11.3666 0.0004 -0.7908 0
M  V30 26 C -10.6653 2.5495 0.0000 0
M  V30 27 O -10.2022 3.5806 0.4624 0
M  V30 28 H -8.8794 2.1318 2.0044 0
M  V30 29 N -3.6884 10.6653 -0.0000 0
M  V30 30 C -1.3651 11.4706 0.0590 0
M  V30 31 C -0.3757 11.3398 1.0459 0
M  V30 32 C -1.0044 11.3619 -1.2930 0
M  V30 33 C 0.3245 11.1225 -1.6524 0
M  V30 34 H -1.7513 11.4649 -2.0697 0
M  V30 35 C 1.3185 10.9940 -0.6696 0
M  V30 36 H 0.5835 11.0412 -2.7010 0
M  V30 37 C 0.9550 11.1038 0.6877 0
M  V30 38 H -0.6340 11.4220 2.0945 0
M  V30 39 H 1.6914 11.0071 1.4741 0
M  V30 40 C -2.8008 11.7355 0.4494 0
M  V30 41 H -2.8957 11.8261 1.5533 0
M  V30 42 H -3.1314 12.6996 0.0072 0
M  V30 43 C 2.7451 10.7421 -1.1126 0
M  V30 44 N 3.6884 10.6653 -0.0000 0
M  V30 45 H 3.0617 11.5591 -1.7986 0
M  V30 46 H 2.7728 9.7839 -1.6756 0
M  V30 47 H 4.6335 10.4395 -0.3842 0
M  V30 48 H -3.6981 10.6154 -1.0432 0
M  V30 49 N 3.6884 -10.6653 -0.0000 0
M  V30 50 C 1.3651 -11.4706 0.0590 0
M  V30 51 C 0.3757 -11.3398 1.0459 0
M  V30 52 C 1.0044 -11.3619 -1.2930 0
M  V30 53 C -0.3245 -11.1225 -1.6524 0
M  V30 54 H 1.7513 -11.4649 -2.0697 0
M  V30 55 C -1.3185 -10.9940 -0.6696 0
M  V30 56 H -0.5835 -11.0412 -2.7010 0
M  V30 57 C -0.9550 -11.1038 0.6877 0
M  V30 58 H 0.6340 -11.4220 2.0945 0
M  V30 59 H -1.6914 -11.0071 1.4741 0
M  V30 60 C 2.8008 -11.7355 0.4494 0
M  V30 61 H 2.8957 -11.8261 1.5533 0
M  V30 62 H 3.1314 -12.6996 0.0072 0
M  V30 63 C -2.7451 -10.7421 -1.1126 0
M  V30 64 N -3.6884 -10.6653 -0.0000 0
M  V30 65 H -3.0617 -11.5591 -1.7986 0
M  V30 66 H -2.7728 -9.7839 -1.6756 0
M  V30 67 H -4.6335 -10.4395 -0.3842 0
M  V30 68 H 3.6981 -10.6154 -1.0432 0
M  V30 END ATOM
M  V30 BEGIN BOND
M  V30 1 2 1 2
M  V30 2 1 1 4
M  V30 3 1 3 4
M  V30 4 2 3 5
M  V30 5 1 3 9
M  V30 6 2 4 7
M  V30 7 1 5 6
M  V30 8 1 5 10
M  V30 9 1 6 14
M  V30 10 1 7 8
M  V30 11 1 7 11
M  V30 12 2 8 6
M  V30 13 2 12 13
M  V30 14 1 12 8
M  V30 15 2 15 16
M  V30 16 1 15 18
M  V30 17 1 17 18
M  V30 18 2 17 19
M  V30 19 1 17 23
M  V30 20 2 18 21
M  V30 21 1 19 20
M  V30 22 1 19 24
M  V30 23 1 20 28
M  V30 24 1 21 22
M  V30 25 1 21 25
M  V30 26 2 22 20
M  V30 27 2 26 27
M  V30 28 1 26 22
M  V30 29 1 29 40
M  V30 30 1 29 48
M  V30 31 2 30 31
M  V30 32 1 30 32
M  V30 33 1 31 38
M  V30 34 2 32 33
M  V30 35 1 32 34
M  V30 36 1 33 35
M  V30 37 1 33 36
M  V30 38 2 35 37
M  V30 39 1 35 43
M  V30 40 1 37 31
M  V30 41 1 37 39
M  V30 42 1 40 30
M  V30 43 1 40 41
M  V30 44 1 40 42
M  V30 45 1 43 44
M  V30 46 1 43 45
M  V30 47 1 43 46
M  V30 48 1 44 47
M  V30 49 1 49 60
M  V30 50 1 49 68
M  V30 51 2 50 51
M  V30 52 1 50 52
M  V30 53 1 51 58
M  V30 54 2 52 53
M  V30 55 1 52 54
M  V30 56 1 53 55
M  V30 57 1 53 56
M  V30 58 2 55 57
M  V30 59 1 55 63
M  V30 60 1 57 51
M  V30 61 1 57 59
M  V30 62 1 60 50
M  V30 63 1 60 61
M  V30 64 1 60 62
M  V30 65 1 63 64
M  V30 66 1 63 65
M  V30 67 1 63 66
M  V30 68 1 64 67
M  V30 69 1 1 44
M  V30 70 1 26 29
M  V30 71 1 15 64
M  V30 72 1 12 49
M  V30 END BOND
M  V30 END CTAB
M  END

$$$$
