
     RDKit          3D

  0  0  0  0  0  0  0  0  0  0999 V3000
M  V30 BEGIN CTAB
M  V30 COUNTS 71 75 0 0 0
M  V30 BEGIN ATOM
M  V30 1 N -0.0000 5.5038 -28.8670 0
M  V30 2 C -0.9698 6.4230 -29.1229 0
M  V30 3 C -1.6707 6.3728 -30.3426 0
M  V30 4 C -1.3777 5.3674 -31.2505 0
M  V30 5 C -0.3847 4.4201 -30.9638 0
M  V30 6 C 0.3151 4.5285 -29.7575 0
M  V30 7 C -0.1820 3.3048 -31.8449 0
M  V30 8 C -0.0965 2.3186 -32.5289 0
M  V30 9 H 1.0633 3.7988 -29.4853 0
M  V30 10 H -1.2038 7.1968 -28.3967 0
M  V30 11 H -2.4069 7.1171 -30.5554 0
M  V30 12 H -1.9346 5.3199 -32.1789 0
M  V30 13 N 0.0000 -5.5038 -28.8670 0
M  V30 14 C -0.1461 -6.7669 -29.3311 0
M  V30 15 C -0.4489 -6.9931 -30.6771 0
M  V30 16 C -0.5623 -5.8970 -31.5508 0
M  V30 17 C -0.3819 -4.6021 -31.0654 0
M  V30 18 C -0.1140 -4.4206 -29.6997 0
M  V30 19 C -0.4605 -3.4719 -31.9356 0
M  V30 20 C -0.4986 -2.4975 -32.6570 0
M  V30 21 H 0.0152 -3.4228 -29.2932 0
M  V30 22 H 0.0180 -7.6134 -28.6574 0
M  V30 23 H -0.5194 -8.0018 -31.0763 0
M  V30 24 H -0.8062 -6.0681 -32.5828 0
M  V30 25 C 0.0240 -0.0599 -35.4817 0
M  V30 26 C 0.0957 1.1411 -34.7095 0
M  V30 27 C -0.0986 1.1021 -33.3139 0
M  V30 28 C -0.4804 -0.0774 -32.7128 0
M  V30 29 C -0.4766 -1.2759 -33.4318 0
M  V30 30 C -0.2131 -1.2750 -34.8017 0
M  V30 31 H -0.2350 -2.1837 -35.3731 0
M  V30 32 H 0.3085 2.1162 -35.2089 0
M  V30 33 H -0.6715 -0.1045 -31.6332 0
M  V30 34 C -0.1347 0.0889 -36.9959 0
M  V30 35 O -0.3546 1.2500 -37.4235 0
M  V30 36 N -0.6929 -1.0301 -37.7198 0
M  V30 37 C -0.0698 -1.5078 -38.9650 0
M  V30 38 C -1.0809 -2.2039 -39.8376 0
M  V30 39 H 0.3679 -0.6616 -39.5385 0
M  V30 40 H 0.6872 -2.2515 -38.6701 0
M  V30 41 O -2.3132 -2.0332 -39.6333 0
M  V30 42 N -0.6743 -3.1533 -40.8455 0
M  V30 43 H -1.4504 -1.6235 -37.2748 0
M  V30 44 C -0.0130 -2.7374 -42.0949 0
M  V30 45 H -0.8098 -4.1775 -40.6697 0
M  V30 46 H -0.4140 -1.7493 -42.3766 0
M  V30 47 H 1.0801 -2.6574 -41.9240 0
M  V30 48 C -0.3297 -3.7147 -43.2837 0
M  V30 49 C -0.2676 -3.0669 -44.6589 0
M  V30 50 C 0.5317 -4.9632 -43.3157 0
M  V30 51 C 1.9368 -4.8797 -43.2131 0
M  V30 52 C 2.7372 -6.0078 -43.4462 0
M  V30 53 C 2.1441 -7.2144 -43.7928 0
M  V30 54 C 0.7539 -7.3143 -43.9167 0
M  V30 55 C -0.0493 -6.1940 -43.6908 0
M  V30 56 H -1.1117 -6.2555 -43.8843 0
M  V30 57 H 2.4459 -3.9470 -43.0079 0
M  V30 58 H 3.8065 -5.9341 -43.3847 0
M  V30 59 H 2.7615 -8.0681 -44.0365 0
M  V30 60 H 0.3218 -8.2238 -44.2892 0
M  V30 61 C -1.2598 -3.3620 -45.6055 0
M  V30 62 C -1.1791 -2.8588 -46.9126 0
M  V30 63 C -0.1264 -2.0360 -47.2814 0
M  V30 64 C 0.8801 -1.7509 -46.3446 0
M  V30 65 C 0.8232 -2.2670 -45.0580 0
M  V30 66 H 1.6422 -2.0692 -44.3764 0
M  V30 67 H -2.0997 -3.9937 -45.3508 0
M  V30 68 H -1.9273 -3.1393 -47.6472 0
M  V30 69 H -0.0597 -1.6738 -48.3053 0
M  V30 70 H 1.7240 -1.1713 -46.6536 0
M  V30 71 H -1.3803 -4.0344 -43.1336 0
M  V30 END ATOM
M  V30 BEGIN BOND
M  V30 1 1 1 2
M  V30 2 2 2 3
M  V30 3 1 2 10
M  V30 4 1 3 4
M  V30 5 1 3 11
M  V30 6 2 4 5
M  V30 7 1 4 12
M  V30 8 1 5 6
M  V30 9 1 5 7
M  V30 10 2 6 1
M  V30 11 1 6 9
M  V30 12 3 7 8
M  V30 13 1 13 14
M  V30 14 2 14 15
M  V30 15 1 14 22
M  V30 16 1 15 16
M  V30 17 1 15 23
M  V30 18 2 16 17
M  V30 19 1 16 24
M  V30 20 1 17 18
M  V30 21 1 17 19
M  V30 22 2 18 13
M  V30 23 1 18 21
M  V30 24 3 19 20
M  V30 25 1 25 26
M  V30 26 2 26 27
M  V30 27 1 26 32
M  V30 28 1 27 28
M  V30 29 2 28 29
M  V30 30 1 28 33
M  V30 31 1 29 30
M  V30 32 2 30 25
M  V30 33 1 30 31
M  V30 34 1 8 27
M  V30 35 1 20 29
M  V30 36 2 34 35
M  V30 37 1 34 36
M  V30 38 1 36 37
M  V30 39 1 36 43
M  V30 40 1 37 38
M  V30 41 1 37 39
M  V30 42 1 37 40
M  V30 43 2 38 41
M  V30 44 1 38 42
M  V30 45 1 42 44
M  V30 46 1 42 45
M  V30 47 1 44 46
M  V30 48 1 44 47
M  V30 49 1 48 49
M  V30 50 1 48 50
M  V30 51 1 48 71
M  V30 52 1 49 61
M  V30 53 1 50 51
M  V30 54 2 51 52
M  V30 55 1 51 57
M  V30 56 1 52 53
M  V30 57 1 52 58
M  V30 58 2 53 54
M  V30 59 1 53 59
M  V30 60 1 54 55
M  V30 61 1 54 60
M  V30 62 2 55 50
M  V30 63 1 55 56
M  V30 64 2 61 62
M  V30 65 1 61 67
M  V30 66 1 62 63
M  V30 67 1 62 68
M  V30 68 2 63 64
M  V30 69 1 63 69
M  V30 70 1 64 65
M  V30 71 1 64 70
M  V30 72 2 65 49
M  V30 73 1 65 66
M  V30 74 1 44 48
M  V30 75 1 25 34
M  V30 END BOND
M  V30 END CTAB
M  END

$$$$
