
     RDKit          3D

  0  0  0  0  0  0  0  0  0  0999 V3000
M  V30 BEGIN CTAB
M  V30 COUNTS 68 72 0 0 0
M  V30 BEGIN ATOM
M  V30 1 H -5.0772 -8.1531 39.8179 0
M  V30 2 H -4.5014 -7.1262 38.4993 0
M  V30 3 H -4.8933 -6.3308 41.3042 0
M  V30 4 H 2.3381 -9.7453 41.6920 0
M  V30 5 N -1.7245 0.1612 41.8778 0
M  V30 6 C 0.5699 0.8815 42.3033 0
M  V30 7 C 0.6737 0.5782 43.6678 0
M  V30 8 C 1.6941 0.7140 41.4743 0
M  V30 9 C 2.8523 0.1115 41.9860 0
M  V30 10 H 1.6561 1.0177 40.4351 0
M  V30 11 C 2.8878 -0.3761 43.3108 0
M  V30 12 H 3.6971 -0.0193 41.3273 0
M  V30 13 C 1.8150 -0.0645 44.1578 0
M  V30 14 H -0.1717 0.7611 44.3403 0
M  V30 15 H 1.8648 -0.3617 45.1968 0
M  V30 16 C -0.7781 1.2769 41.7276 0
M  V30 17 H -1.1814 2.1795 42.2108 0
M  V30 18 H -0.6575 1.5295 40.6536 0
M  V30 19 C 4.1123 -1.0818 43.8506 0
M  V30 20 N 3.9667 -2.5584 43.9009 0
M  V30 21 H 4.3410 -0.7116 44.8634 0
M  V30 22 H 4.9924 -0.8300 43.2116 0
M  V30 23 H 4.0832 -3.0182 44.8286 0
M  V30 24 H -1.5492 -0.5346 42.6286 0
M  V30 25 C -3.7752 -4.9780 40.0274 0
M  V30 26 O -2.9854 -4.9324 39.0527 0
M  V30 27 C -5.2319 -3.6275 41.5855 0
M  V30 28 C -4.1317 -3.7002 40.7168 0
M  V30 29 C -5.5338 -2.4248 42.2323 0
M  V30 30 C -4.7393 -1.2871 42.0280 0
M  V30 31 C -3.3451 -2.5440 40.5006 0
M  V30 32 C -3.6359 -1.3258 41.1592 0
M  V30 33 H -5.8573 -4.4581 41.7840 0
M  V30 34 H -6.3684 -2.3797 42.9153 0
M  V30 35 H -2.4794 -2.6047 39.8749 0
M  V30 36 C -2.8240 -0.1022 40.9923 0
M  V30 37 O -3.1455 0.7352 40.1155 0
M  V30 38 H -4.9931 -0.3906 42.5576 0
M  V30 39 C 3.9793 -3.3932 42.7060 0
M  V30 40 O 3.7524 -2.8660 41.6009 0
M  V30 41 C 4.5378 -5.5999 43.8535 0
M  V30 42 C 3.9513 -4.9011 42.7893 0
M  V30 43 C 4.4057 -6.9844 43.9293 0
M  V30 44 C 3.6299 -7.6921 43.0088 0
M  V30 45 C 3.2528 -5.6442 41.8009 0
M  V30 46 C 3.0011 -7.0313 41.9492 0
M  V30 47 H 5.1089 -5.0743 44.6110 0
M  V30 48 H 4.9004 -7.5036 44.7456 0
M  V30 49 H 2.8325 -5.1075 40.9457 0
M  V30 50 C 2.0798 -7.7169 40.9937 0
M  V30 51 O 1.4913 -7.0288 40.1174 0
M  V30 52 H 3.5388 -8.7577 43.1624 0
M  V30 53 N 1.7841 -9.1269 41.0678 0
M  V30 54 C -0.3711 -9.2761 39.8816 0
M  V30 55 C -1.2421 -9.2385 40.9821 0
M  V30 56 C -0.8361 -8.8074 38.6278 0
M  V30 57 C -2.1064 -8.2364 38.5077 0
M  V30 58 H -0.2100 -8.8843 37.7451 0
M  V30 59 C -2.9316 -8.1255 39.6402 0
M  V30 60 H -2.4362 -7.8492 37.5394 0
M  V30 61 C -2.5248 -8.6789 40.8551 0
M  V30 62 H -0.9324 -9.6456 41.9275 0
M  V30 63 H -3.1997 -8.6743 41.7033 0
M  V30 64 C 1.0217 -9.8353 40.0185 0
M  V30 65 H 0.9602 -10.9238 40.2696 0
M  V30 66 H 1.5690 -9.7629 39.0445 0
M  V30 67 C -4.2785 -7.4357 39.5327 0
M  V30 68 N -4.3464 -6.2428 40.4092 0
M  V30 END ATOM
M  V30 BEGIN BOND
M  V30 1 2 25 26
M  V30 2 1 25 28
M  V30 3 1 27 28
M  V30 4 2 27 29
M  V30 5 1 27 33
M  V30 6 2 28 31
M  V30 7 1 29 30
M  V30 8 1 29 34
M  V30 9 1 30 38
M  V30 10 1 31 32
M  V30 11 1 31 35
M  V30 12 2 32 30
M  V30 13 2 36 37
M  V30 14 1 36 32
M  V30 15 2 39 40
M  V30 16 1 39 42
M  V30 17 1 41 42
M  V30 18 2 41 43
M  V30 19 1 41 47
M  V30 20 2 42 45
M  V30 21 1 43 44
M  V30 22 1 43 48
M  V30 23 1 44 52
M  V30 24 1 45 46
M  V30 25 1 45 49
M  V30 26 2 46 44
M  V30 27 2 50 51
M  V30 28 1 50 46
M  V30 29 1 53 64
M  V30 30 1 53 4
M  V30 31 2 54 55
M  V30 32 1 54 56
M  V30 33 1 55 62
M  V30 34 2 56 57
M  V30 35 1 56 58
M  V30 36 1 57 59
M  V30 37 1 57 60
M  V30 38 2 59 61
M  V30 39 1 59 67
M  V30 40 1 61 55
M  V30 41 1 61 63
M  V30 42 1 64 54
M  V30 43 1 64 65
M  V30 44 1 64 66
M  V30 45 1 67 68
M  V30 46 1 67 1
M  V30 47 1 67 2
M  V30 48 1 68 3
M  V30 49 1 5 16
M  V30 50 1 5 24
M  V30 51 2 6 7
M  V30 52 1 6 8
M  V30 53 1 7 14
M  V30 54 2 8 9
M  V30 55 1 8 10
M  V30 56 1 9 11
M  V30 57 1 9 12
M  V30 58 2 11 13
M  V30 59 1 11 19
M  V30 60 1 13 7
M  V30 61 1 13 15
M  V30 62 1 16 6
M  V30 63 1 16 17
M  V30 64 1 16 18
M  V30 65 1 19 20
M  V30 66 1 19 21
M  V30 67 1 19 22
M  V30 68 1 20 23
M  V30 69 1 25 68
M  V30 70 1 50 53
M  V30 71 1 39 20
M  V30 72 1 36 5
M  V30 END BOND
M  V30 END CTAB
M  END

$$$$
